! Line definitions
New line.1-2   Bus1=1  Bus2=2  R1=0.0922 X1=0.0470
New line.2-3   Bus1=2  Bus2=3  R1=0.493  X1=0.2511
New line.3-4   Bus1=3  Bus2=4  R1=0.366  X1=0.1864
New line.4-5   Bus1=4  Bus2=5  R1=0.3811 X1=0.1941
New line.5-6   Bus1=5  Bus2=6  R1=0.819  X1=0.707
New line.6-7   Bus1=6  Bus2=7  R1=0.1872 X1=0.6188
New line.7-8   Bus1=7  Bus2=8  R1=0.7114 X1=0.2351
New line.8-9   Bus1=8  Bus2=9  R1=1.03   X1=0.74
New line.9-10  Bus1=9  Bus2=10 R1=1.044  X1=0.74
New line.10-11 Bus1=10 Bus2=11 R1=0.1966 X1=0.065
New line.11-12 Bus1=11 Bus2=12 R1=0.3744 X1=0.1238
New line.12-13 Bus1=12 Bus2=13 R1=1.468  X1=1.155
New line.13-14 Bus1=13 Bus2=14 R1=0.5416 X1=0.7129
New line.14-15 Bus1=14 Bus2=15 R1=0.591  X1=0.526
New line.15-16 Bus1=15 Bus2=16 R1=0.7463 X1=0.545
New line.16-17 Bus1=16 Bus2=17 R1=1.289  X1=1.721
New line.17-18 Bus1=17 Bus2=18 R1=0.732  X1=0.574
New line.2-19  Bus1=2  Bus2=19 R1=0.164  X1=0.1565
New line.19-20 Bus1=19 Bus2=20 R1=1.5042 X1=1.3554
New line.20-21 Bus1=20 Bus2=21 R1=0.4095 X1=0.4784
New line.21-22 Bus1=21 Bus2=22 R1=0.7089 X1=0.9373
New line.3-23  Bus1=3  Bus2=23 R1=0.4512 X1=0.3083
New line.23-24 Bus1=23 Bus2=24 R1=0.898  X1=0.7091
New line.24-25 Bus1=24 Bus2=25 R1=0.896  X1=0.7011
New line.6-26  Bus1=6  Bus2=26 R1=0.203  X1=0.1034
New line.26-27 Bus1=26 Bus2=27 R1=0.2842 X1=0.1447
New line.27-28 Bus1=27 Bus2=28 R1=1.059  X1=0.9337
New line.28-29 Bus1=28 Bus2=29 R1=0.8042 X1=0.7006
New line.29-30 Bus1=29 Bus2=30 R1=0.5075 X1=0.2585
New line.30-31 Bus1=30 Bus2=31 R1=0.9744 X1=0.963
New line.31-32 Bus1=31 Bus2=32 R1=0.3105 X1=0.3619
New line.32-33 Bus1=32 Bus2=33 R1=0.341  X1=0.5302
New line.2001-2002 Bus1=2001 Bus2=2002 R1=0.00975 X1=0.00155
New line.2002-2003 Bus1=2002 Bus2=2003 R1=0.00679 X1=0.00052
New line.2002-2004 Bus1=2002 Bus2=2004 R1=0.00563 X1=0.00090
New line.2003-2056 Bus1=2003 Bus2=2056 R1=0.00615 X1=0.00047
New line.2003-2058 Bus1=2003 Bus2=2058 R1=0.00776 X1=0.00059
New line.2004-2005 Bus1=2004 Bus2=2005 R1=0.00659 X1=0.00050
New line.2004-2006 Bus1=2004 Bus2=2006 R1=0.00944 X1=0.00150
New line.2005-2057 Bus1=2005 Bus2=2057 R1=0.00708 X1=0.00054
New line.2005-2061 Bus1=2005 Bus2=2061 R1=0.00741 X1=0.00057
New line.2006-2007 Bus1=2006 Bus2=2007 R1=0.00950 X1=0.00073
New line.2006-2008 Bus1=2006 Bus2=2008 R1=0.00597 X1=0.00095
New line.2007-2059 Bus1=2007 Bus2=2059 R1=0.00464 X1=0.00036
New line.2007-2060 Bus1=2007 Bus2=2060 R1=0.00464 X1=0.00036
New line.2008-2009 Bus1=2008 Bus2=2009 R1=0.00392 X1=0.00062
New line.2008-2012 Bus1=2008 Bus2=2012 R1=0.00131 X1=0.00099
New line.2009-2010 Bus1=2009 Bus2=2010 R1=0.00037 X1=0.00028
New line.2009-2017 Bus1=2009 Bus2=2017 R1=0.00772 X1=0.00206
New line.2010-2011 Bus1=2010 Bus2=2011 R1=0.00143 X1=0.00109
New line.2010-2069 Bus1=2010 Bus2=2069 R1=0.01650 X1=0.00126
New line.2011-2018 Bus1=2011 Bus2=2018 R1=0.01286 X1=0.00098
New line.2011-2021 Bus1=2011 Bus2=2021 R1=0.01342 X1=0.00202
New line.2012-2013 Bus1=2012 Bus2=2013 R1=0.00109 X1=0.00083
New line.2012-2062 Bus1=2012 Bus2=2062 R1=0.02132 X1=0.00163
New line.2013-2014 Bus1=2013 Bus2=2014 R1=0.01432 X1=0.00110
New line.2013-2015 Bus1=2013 Bus2=2015 R1=0.00126 X1=0.00095
New line.2014-2063 Bus1=2014 Bus2=2063 R1=0.00795 X1=0.00061
New line.2014-2067 Bus1=2014 Bus2=2067 R1=0.00947 X1=0.00072
New line.2015-2016 Bus1=2015 Bus2=2016 R1=0.01632 X1=0.00170
New line.2015-2064 Bus1=2015 Bus2=2064 R1=0.02123 X1=0.00162
New line.2016-2065 Bus1=2016 Bus2=2065 R1=0.00610 X1=0.00047
New line.2016-2066 Bus1=2016 Bus2=2066 R1=0.00610 X1=0.00047
New line.2017-2019 Bus1=2017 Bus2=2019 R1=0.00112 X1=0.00030
New line.2017-2076 Bus1=2017 Bus2=2076 R1=0.01670 X1=0.00128
New line.2018-2068 Bus1=2018 Bus2=2068 R1=0.00792 X1=0.00061
New line.2018-2070 Bus1=2018 Bus2=2070 R1=0.00552 X1=0.00042
New line.2019-2020 Bus1=2019 Bus2=2020 R1=0.00137 X1=0.00036
New line.2019-2074 Bus1=2019 Bus2=2074 R1=0.01721 X1=0.00132
New line.2020-2022 Bus1=2020 Bus2=2022 R1=0.00386 X1=0.00062
New line.2020-2026 Bus1=2020 Bus2=2026 R1=0.00200 X1=0.00053
New line.2021-2071 Bus1=2021 Bus2=2071 R1=0.00818 X1=0.00063
New line.2021-2072 Bus1=2021 Bus2=2072 R1=0.00382 X1=0.00029
New line.2022-2023 Bus1=2022 Bus2=2023 R1=0.00501 X1=0.00080
New line.2022-2025 Bus1=2022 Bus2=2025 R1=0.00885 X1=0.00068
New line.2023-2024 Bus1=2023 Bus2=2024 R1=0.00313 X1=0.00050
New line.2023-2073 Bus1=2023 Bus2=2073 R1=0.01466 X1=0.00112
New line.2024-2028 Bus1=2024 Bus2=2028 R1=0.01766 X1=0.00282
New line.2024-2078 Bus1=2024 Bus2=2078 R1=0.01815 X1=0.00139
New line.2025-2075 Bus1=2025 Bus2=2075 R1=0.00598 X1=0.00046
New line.2025-2077 Bus1=2025 Bus2=2077 R1=0.00980 X1=0.00075
New line.2026-2027 Bus1=2026 Bus2=2027 R1=0.00202 X1=0.00054
New line.2026-2079 Bus1=2026 Bus2=2079 R1=0.02442 X1=0.00187
New line.2027-2031 Bus1=2027 Bus2=2031 R1=0.00721 X1=0.00192
New line.2027-2033 Bus1=2027 Bus2=2033 R1=0.01228 X1=0.00094
New line.2028-2029 Bus1=2028 Bus2=2029 R1=0.00637 X1=0.00102
New line.2028-2089 Bus1=2028 Bus2=2089 R1=0.01901 X1=0.00145
New line.2029-2030 Bus1=2029 Bus2=2030 R1=0.01182 X1=0.00090
New line.2029-2032 Bus1=2029 Bus2=2032 R1=0.00753 X1=0.00120
New line.2030-2080 Bus1=2030 Bus2=2080 R1=0.00768 X1=0.00059
New line.2030-2085 Bus1=2030 Bus2=2085 R1=0.00638 X1=0.00049
New line.2031-2036 Bus1=2031 Bus2=2036 R1=0.00080 X1=0.00021
New line.2031-2081 Bus1=2031 Bus2=2081 R1=0.01204 X1=0.00092
New line.2032-2034 Bus1=2032 Bus2=2034 R1=0.01226 X1=0.00094
New line.2032-2035 Bus1=2032 Bus2=2035 R1=0.00607 X1=0.00097
New line.2033-2082 Bus1=2033 Bus2=2082 R1=0.00642 X1=0.00049
New line.2033-2083 Bus1=2033 Bus2=2083 R1=0.01127 X1=0.00086
New line.2034-2084 Bus1=2034 Bus2=2084 R1=0.00765 X1=0.00059
New line.2034-2086 Bus1=2034 Bus2=2086 R1=0.00733 X1=0.00056
New line.2035-2037 Bus1=2035 Bus2=2037 R1=0.00342 X1=0.00055
New line.2035-2040 Bus1=2035 Bus2=2040 R1=0.01577 X1=0.00121
New line.2036-2038 Bus1=2036 Bus2=2038 R1=0.00131 X1=0.00035
New line.2036-2099 Bus1=2036 Bus2=2099 R1=0.01807 X1=0.00138
New line.2037-2088 Bus1=2037 Bus2=2088 R1=0.01687 X1=0.00132
New line.2037-2090 Bus1=2037 Bus2=2090 R1=0.02498 X1=0.00213
New line.2038-2039 Bus1=2038 Bus2=2039 R1=0.00249 X1=0.00066
New line.2038-2087 Bus1=2038 Bus2=2087 R1=0.01610 X1=0.00123
New line.2039-2041 Bus1=2039 Bus2=2041 R1=0.00074 X1=0.00020
New line.2039-2093 Bus1=2039 Bus2=2093 R1=0.01583 X1=0.00121
New line.2040-2091 Bus1=2040 Bus2=2091 R1=0.00615 X1=0.00047
New line.2040-2092 Bus1=2040 Bus2=2092 R1=0.00693 X1=0.00053
New line.2041-2042 Bus1=2041 Bus2=2042 R1=0.00264 X1=0.00070
New line.2041-2050 Bus1=2041 Bus2=2050 R1=0.01747 X1=0.00134
New line.2042-2043 Bus1=2042 Bus2=2043 R1=0.00937 X1=0.00072
New line.2042-2044 Bus1=2042 Bus2=2044 R1=0.00288 X1=0.00077
New line.2043-2094 Bus1=2043 Bus2=2094 R1=0.00743 X1=0.00057
New line.2043-2097 Bus1=2043 Bus2=2097 R1=0.00846 X1=0.00065
New line.2044-2045 Bus1=2044 Bus2=2045 R1=0.00469 X1=0.00081
New line.2044-2095 Bus1=2044 Bus2=2095 R1=0.01722 X1=0.00132
New line.2045-2046 Bus1=2045 Bus2=2046 R1=0.00715 X1=0.00114
New line.2045-2055 Bus1=2045 Bus2=2055 R1=0.01466 X1=0.00112
New line.2046-2047 Bus1=2046 Bus2=2047 R1=0.01295 X1=0.00099
New line.2046-2048 Bus1=2046 Bus2=2048 R1=0.00798 X1=0.00128
New line.2047-2096 Bus1=2047 Bus2=2096 R1=0.00779 X1=0.00060
New line.2047-2100 Bus1=2047 Bus2=2100 R1=0.00662 X1=0.00051
New line.2048-2049 Bus1=2048 Bus2=2049 R1=0.01250 X1=0.00096
New line.2048-2051 Bus1=2048 Bus2=2051 R1=0.00913 X1=0.00146
New line.2049-2098 Bus1=2049 Bus2=2098 R1=0.00820 X1=0.00063
New line.2049-2102 Bus1=2049 Bus2=2102 R1=0.00651 X1=0.00050
New line.2050-2052 Bus1=2050 Bus2=2052 R1=0.00264 X1=0.00020
New line.2050-2101 Bus1=2050 Bus2=2101 R1=0.01124 X1=0.00086
New line.2051-2053 Bus1=2051 Bus2=2053 R1=0.01979 X1=0.00205
New line.2051-2054 Bus1=2051 Bus2=2054 R1=0.01239 X1=0.00095
New line.2052-2103 Bus1=2052 Bus2=2103 R1=0.00324 X1=0.00025
New line.2052-2104 Bus1=2052 Bus2=2104 R1=0.00864 X1=0.00066
New line.2053-2105 Bus1=2053 Bus2=2105 R1=0.00944 X1=0.00064
New line.2053-2108 Bus1=2053 Bus2=2108 R1=0.01174 X1=0.00079
New line.2054-2107 Bus1=2054 Bus2=2107 R1=0.00897 X1=0.00095
New line.2054-2110 Bus1=2054 Bus2=2110 R1=0.00931 X1=0.00071
New line.2055-2106 Bus1=2055 Bus2=2106 R1=0.00375 X1=0.00029
New line.2055-2109 Bus1=2055 Bus2=2109 R1=0.01115 X1=0.00085
New line.3001-3002 Bus1=3001 Bus2=3002 R1=0.00975 X1=0.00155
New line.3002-3003 Bus1=3002 Bus2=3003 R1=0.00679 X1=0.00052
New line.3002-3004 Bus1=3002 Bus2=3004 R1=0.00563 X1=0.00090
New line.3003-3056 Bus1=3003 Bus2=3056 R1=0.00615 X1=0.00047
New line.3003-3058 Bus1=3003 Bus2=3058 R1=0.00776 X1=0.00059
New line.3004-3005 Bus1=3004 Bus2=3005 R1=0.00659 X1=0.00050
New line.3004-3006 Bus1=3004 Bus2=3006 R1=0.00944 X1=0.00150
New line.3005-3057 Bus1=3005 Bus2=3057 R1=0.00708 X1=0.00054
New line.3005-3061 Bus1=3005 Bus2=3061 R1=0.00741 X1=0.00057
New line.3006-3007 Bus1=3006 Bus2=3007 R1=0.00950 X1=0.00073
New line.3006-3008 Bus1=3006 Bus2=3008 R1=0.00597 X1=0.00095
New line.3007-3059 Bus1=3007 Bus2=3059 R1=0.00464 X1=0.00036
New line.3007-3060 Bus1=3007 Bus2=3060 R1=0.00464 X1=0.00036
New line.3008-3009 Bus1=3008 Bus2=3009 R1=0.00392 X1=0.00062
New line.3008-3012 Bus1=3008 Bus2=3012 R1=0.00131 X1=0.00099
New line.3009-3010 Bus1=3009 Bus2=3010 R1=0.00037 X1=0.00028
New line.3009-3017 Bus1=3009 Bus2=3017 R1=0.00772 X1=0.00206
New line.3010-3011 Bus1=3010 Bus2=3011 R1=0.00143 X1=0.00109
New line.3010-3069 Bus1=3010 Bus2=3069 R1=0.01650 X1=0.00126
New line.3011-3018 Bus1=3011 Bus2=3018 R1=0.01286 X1=0.00098
New line.3011-3021 Bus1=3011 Bus2=3021 R1=0.01342 X1=0.00202
New line.3012-3013 Bus1=3012 Bus2=3013 R1=0.00109 X1=0.00083
New line.3012-3062 Bus1=3012 Bus2=3062 R1=0.02132 X1=0.00163
New line.3013-3014 Bus1=3013 Bus2=3014 R1=0.01432 X1=0.00110
New line.3013-3015 Bus1=3013 Bus2=3015 R1=0.00126 X1=0.00095
New line.3014-3063 Bus1=3014 Bus2=3063 R1=0.00795 X1=0.00061
New line.3014-3067 Bus1=3014 Bus2=3067 R1=0.00947 X1=0.00072
New line.3015-3016 Bus1=3015 Bus2=3016 R1=0.01632 X1=0.00170
New line.3015-3064 Bus1=3015 Bus2=3064 R1=0.02123 X1=0.00162
New line.3016-3065 Bus1=3016 Bus2=3065 R1=0.00610 X1=0.00047
New line.3016-3066 Bus1=3016 Bus2=3066 R1=0.00610 X1=0.00047
New line.3017-3019 Bus1=3017 Bus2=3019 R1=0.00112 X1=0.00030
New line.3017-3076 Bus1=3017 Bus2=3076 R1=0.01670 X1=0.00128
New line.3018-3068 Bus1=3018 Bus2=3068 R1=0.00792 X1=0.00061
New line.3018-3070 Bus1=3018 Bus2=3070 R1=0.00552 X1=0.00042
New line.3019-3020 Bus1=3019 Bus2=3020 R1=0.00137 X1=0.00036
New line.3019-3074 Bus1=3019 Bus2=3074 R1=0.01721 X1=0.00132
New line.3020-3022 Bus1=3020 Bus2=3022 R1=0.00386 X1=0.00062
New line.3020-3026 Bus1=3020 Bus2=3026 R1=0.00200 X1=0.00053
New line.3021-3071 Bus1=3021 Bus2=3071 R1=0.00818 X1=0.00063
New line.3021-3072 Bus1=3021 Bus2=3072 R1=0.00382 X1=0.00029
New line.3022-3023 Bus1=3022 Bus2=3023 R1=0.00501 X1=0.00080
New line.3022-3025 Bus1=3022 Bus2=3025 R1=0.00885 X1=0.00068
New line.3023-3024 Bus1=3023 Bus2=3024 R1=0.00313 X1=0.00050
New line.3023-3073 Bus1=3023 Bus2=3073 R1=0.01466 X1=0.00112
New line.3024-3028 Bus1=3024 Bus2=3028 R1=0.01766 X1=0.00282
New line.3024-3078 Bus1=3024 Bus2=3078 R1=0.01815 X1=0.00139
New line.3025-3075 Bus1=3025 Bus2=3075 R1=0.00598 X1=0.00046
New line.3025-3077 Bus1=3025 Bus2=3077 R1=0.00980 X1=0.00075
New line.3026-3027 Bus1=3026 Bus2=3027 R1=0.00202 X1=0.00054
New line.3026-3079 Bus1=3026 Bus2=3079 R1=0.02442 X1=0.00187
New line.3027-3031 Bus1=3027 Bus2=3031 R1=0.00721 X1=0.00192
New line.3027-3033 Bus1=3027 Bus2=3033 R1=0.01228 X1=0.00094
New line.3028-3029 Bus1=3028 Bus2=3029 R1=0.00637 X1=0.00102
New line.3028-3089 Bus1=3028 Bus2=3089 R1=0.01901 X1=0.00145
New line.3029-3030 Bus1=3029 Bus2=3030 R1=0.01182 X1=0.00090
New line.3029-3032 Bus1=3029 Bus2=3032 R1=0.00753 X1=0.00120
New line.3030-3080 Bus1=3030 Bus2=3080 R1=0.00768 X1=0.00059
New line.3030-3085 Bus1=3030 Bus2=3085 R1=0.00638 X1=0.00049
New line.3031-3036 Bus1=3031 Bus2=3036 R1=0.00080 X1=0.00021
New line.3031-3081 Bus1=3031 Bus2=3081 R1=0.01204 X1=0.00092
New line.3032-3034 Bus1=3032 Bus2=3034 R1=0.01226 X1=0.00094
New line.3032-3035 Bus1=3032 Bus2=3035 R1=0.00607 X1=0.00097
New line.3033-3082 Bus1=3033 Bus2=3082 R1=0.00642 X1=0.00049
New line.3033-3083 Bus1=3033 Bus2=3083 R1=0.01127 X1=0.00086
New line.3034-3084 Bus1=3034 Bus2=3084 R1=0.00765 X1=0.00059
New line.3034-3086 Bus1=3034 Bus2=3086 R1=0.00733 X1=0.00056
New line.3035-3037 Bus1=3035 Bus2=3037 R1=0.00342 X1=0.00055
New line.3035-3040 Bus1=3035 Bus2=3040 R1=0.01577 X1=0.00121
New line.3036-3038 Bus1=3036 Bus2=3038 R1=0.00131 X1=0.00035
New line.3036-3099 Bus1=3036 Bus2=3099 R1=0.01807 X1=0.00138
New line.3037-3088 Bus1=3037 Bus2=3088 R1=0.01687 X1=0.00132
New line.3037-3090 Bus1=3037 Bus2=3090 R1=0.02498 X1=0.00213
New line.3038-3039 Bus1=3038 Bus2=3039 R1=0.00249 X1=0.00066
New line.3038-3087 Bus1=3038 Bus2=3087 R1=0.01610 X1=0.00123
New line.3039-3041 Bus1=3039 Bus2=3041 R1=0.00074 X1=0.00020
New line.3039-3093 Bus1=3039 Bus2=3093 R1=0.01583 X1=0.00121
New line.3040-3091 Bus1=3040 Bus2=3091 R1=0.00615 X1=0.00047
New line.3040-3092 Bus1=3040 Bus2=3092 R1=0.00693 X1=0.00053
New line.3041-3042 Bus1=3041 Bus2=3042 R1=0.00264 X1=0.00070
New line.3041-3050 Bus1=3041 Bus2=3050 R1=0.01747 X1=0.00134
New line.3042-3043 Bus1=3042 Bus2=3043 R1=0.00937 X1=0.00072
New line.3042-3044 Bus1=3042 Bus2=3044 R1=0.00288 X1=0.00077
New line.3043-3094 Bus1=3043 Bus2=3094 R1=0.00743 X1=0.00057
New line.3043-3097 Bus1=3043 Bus2=3097 R1=0.00846 X1=0.00065
New line.3044-3045 Bus1=3044 Bus2=3045 R1=0.00469 X1=0.00081
New line.3044-3095 Bus1=3044 Bus2=3095 R1=0.01722 X1=0.00132
New line.3045-3046 Bus1=3045 Bus2=3046 R1=0.00715 X1=0.00114
New line.3045-3055 Bus1=3045 Bus2=3055 R1=0.01466 X1=0.00112
New line.3046-3047 Bus1=3046 Bus2=3047 R1=0.01295 X1=0.00099
New line.3046-3048 Bus1=3046 Bus2=3048 R1=0.00798 X1=0.00128
New line.3047-3096 Bus1=3047 Bus2=3096 R1=0.00779 X1=0.00060
New line.3047-3100 Bus1=3047 Bus2=3100 R1=0.00662 X1=0.00051
New line.3048-3049 Bus1=3048 Bus2=3049 R1=0.01250 X1=0.00096
New line.3048-3051 Bus1=3048 Bus2=3051 R1=0.00913 X1=0.00146
New line.3049-3098 Bus1=3049 Bus2=3098 R1=0.00820 X1=0.00063
New line.3049-3102 Bus1=3049 Bus2=3102 R1=0.00651 X1=0.00050
New line.3050-3052 Bus1=3050 Bus2=3052 R1=0.00264 X1=0.00020
New line.3050-3101 Bus1=3050 Bus2=3101 R1=0.01124 X1=0.00086
New line.3051-3053 Bus1=3051 Bus2=3053 R1=0.01979 X1=0.00205
New line.3051-3054 Bus1=3051 Bus2=3054 R1=0.01239 X1=0.00095
New line.3052-3103 Bus1=3052 Bus2=3103 R1=0.00324 X1=0.00025
New line.3052-3104 Bus1=3052 Bus2=3104 R1=0.00864 X1=0.00066
New line.3053-3105 Bus1=3053 Bus2=3105 R1=0.00944 X1=0.00064
New line.3053-3108 Bus1=3053 Bus2=3108 R1=0.01174 X1=0.00079
New line.3054-3107 Bus1=3054 Bus2=3107 R1=0.00897 X1=0.00095
New line.3054-3110 Bus1=3054 Bus2=3110 R1=0.00931 X1=0.00071
New line.3055-3106 Bus1=3055 Bus2=3106 R1=0.00375 X1=0.00029
New line.3055-3109 Bus1=3055 Bus2=3109 R1=0.01115 X1=0.00085
New line.4001-4002 Bus1=4001 Bus2=4002 R1=0.00975 X1=0.00155
New line.4002-4003 Bus1=4002 Bus2=4003 R1=0.00679 X1=0.00052
New line.4002-4004 Bus1=4002 Bus2=4004 R1=0.00563 X1=0.00090
New line.4003-4056 Bus1=4003 Bus2=4056 R1=0.00615 X1=0.00047
New line.4003-4058 Bus1=4003 Bus2=4058 R1=0.00776 X1=0.00059
New line.4004-4005 Bus1=4004 Bus2=4005 R1=0.00659 X1=0.00050
New line.4004-4006 Bus1=4004 Bus2=4006 R1=0.00944 X1=0.00150
New line.4005-4057 Bus1=4005 Bus2=4057 R1=0.00708 X1=0.00054
New line.4005-4061 Bus1=4005 Bus2=4061 R1=0.00741 X1=0.00057
New line.4006-4007 Bus1=4006 Bus2=4007 R1=0.00950 X1=0.00073
New line.4006-4008 Bus1=4006 Bus2=4008 R1=0.00597 X1=0.00095
New line.4007-4059 Bus1=4007 Bus2=4059 R1=0.00464 X1=0.00036
New line.4007-4060 Bus1=4007 Bus2=4060 R1=0.00464 X1=0.00036
New line.4008-4009 Bus1=4008 Bus2=4009 R1=0.00392 X1=0.00062
New line.4008-4012 Bus1=4008 Bus2=4012 R1=0.00131 X1=0.00099
New line.4009-4010 Bus1=4009 Bus2=4010 R1=0.00037 X1=0.00028
New line.4009-4017 Bus1=4009 Bus2=4017 R1=0.00772 X1=0.00206
New line.4010-4011 Bus1=4010 Bus2=4011 R1=0.00143 X1=0.00109
New line.4010-4069 Bus1=4010 Bus2=4069 R1=0.01650 X1=0.00126
New line.4011-4018 Bus1=4011 Bus2=4018 R1=0.01286 X1=0.00098
New line.4011-4021 Bus1=4011 Bus2=4021 R1=0.01342 X1=0.00202
New line.4012-4013 Bus1=4012 Bus2=4013 R1=0.00109 X1=0.00083
New line.4012-4062 Bus1=4012 Bus2=4062 R1=0.02132 X1=0.00163
New line.4013-4014 Bus1=4013 Bus2=4014 R1=0.01432 X1=0.00110
New line.4013-4015 Bus1=4013 Bus2=4015 R1=0.00126 X1=0.00095
New line.4014-4063 Bus1=4014 Bus2=4063 R1=0.00795 X1=0.00061
New line.4014-4067 Bus1=4014 Bus2=4067 R1=0.00947 X1=0.00072
New line.4015-4016 Bus1=4015 Bus2=4016 R1=0.01632 X1=0.00170
New line.4015-4064 Bus1=4015 Bus2=4064 R1=0.02123 X1=0.00162
New line.4016-4065 Bus1=4016 Bus2=4065 R1=0.00610 X1=0.00047
New line.4016-4066 Bus1=4016 Bus2=4066 R1=0.00610 X1=0.00047
New line.4017-4019 Bus1=4017 Bus2=4019 R1=0.00112 X1=0.00030
New line.4017-4076 Bus1=4017 Bus2=4076 R1=0.01670 X1=0.00128
New line.4018-4068 Bus1=4018 Bus2=4068 R1=0.00792 X1=0.00061
New line.4018-4070 Bus1=4018 Bus2=4070 R1=0.00552 X1=0.00042
New line.4019-4020 Bus1=4019 Bus2=4020 R1=0.00137 X1=0.00036
New line.4019-4074 Bus1=4019 Bus2=4074 R1=0.01721 X1=0.00132
New line.4020-4022 Bus1=4020 Bus2=4022 R1=0.00386 X1=0.00062
New line.4020-4026 Bus1=4020 Bus2=4026 R1=0.00200 X1=0.00053
New line.4021-4071 Bus1=4021 Bus2=4071 R1=0.00818 X1=0.00063
New line.4021-4072 Bus1=4021 Bus2=4072 R1=0.00382 X1=0.00029
New line.4022-4023 Bus1=4022 Bus2=4023 R1=0.00501 X1=0.00080
New line.4022-4025 Bus1=4022 Bus2=4025 R1=0.00885 X1=0.00068
New line.4023-4024 Bus1=4023 Bus2=4024 R1=0.00313 X1=0.00050
New line.4023-4073 Bus1=4023 Bus2=4073 R1=0.01466 X1=0.00112
New line.4024-4028 Bus1=4024 Bus2=4028 R1=0.01766 X1=0.00282
New line.4024-4078 Bus1=4024 Bus2=4078 R1=0.01815 X1=0.00139
New line.4025-4075 Bus1=4025 Bus2=4075 R1=0.00598 X1=0.00046
New line.4025-4077 Bus1=4025 Bus2=4077 R1=0.00980 X1=0.00075
New line.4026-4027 Bus1=4026 Bus2=4027 R1=0.00202 X1=0.00054
New line.4026-4079 Bus1=4026 Bus2=4079 R1=0.02442 X1=0.00187
New line.4027-4031 Bus1=4027 Bus2=4031 R1=0.00721 X1=0.00192
New line.4027-4033 Bus1=4027 Bus2=4033 R1=0.01228 X1=0.00094
New line.4028-4029 Bus1=4028 Bus2=4029 R1=0.00637 X1=0.00102
New line.4028-4089 Bus1=4028 Bus2=4089 R1=0.01901 X1=0.00145
New line.4029-4030 Bus1=4029 Bus2=4030 R1=0.01182 X1=0.00090
New line.4029-4032 Bus1=4029 Bus2=4032 R1=0.00753 X1=0.00120
New line.4030-4080 Bus1=4030 Bus2=4080 R1=0.00768 X1=0.00059
New line.4030-4085 Bus1=4030 Bus2=4085 R1=0.00638 X1=0.00049
New line.4031-4036 Bus1=4031 Bus2=4036 R1=0.00080 X1=0.00021
New line.4031-4081 Bus1=4031 Bus2=4081 R1=0.01204 X1=0.00092
New line.4032-4034 Bus1=4032 Bus2=4034 R1=0.01226 X1=0.00094
New line.4032-4035 Bus1=4032 Bus2=4035 R1=0.00607 X1=0.00097
New line.4033-4082 Bus1=4033 Bus2=4082 R1=0.00642 X1=0.00049
New line.4033-4083 Bus1=4033 Bus2=4083 R1=0.01127 X1=0.00086
New line.4034-4084 Bus1=4034 Bus2=4084 R1=0.00765 X1=0.00059
New line.4034-4086 Bus1=4034 Bus2=4086 R1=0.00733 X1=0.00056
New line.4035-4037 Bus1=4035 Bus2=4037 R1=0.00342 X1=0.00055
New line.4035-4040 Bus1=4035 Bus2=4040 R1=0.01577 X1=0.00121
New line.4036-4038 Bus1=4036 Bus2=4038 R1=0.00131 X1=0.00035
New line.4036-4099 Bus1=4036 Bus2=4099 R1=0.01807 X1=0.00138
New line.4037-4088 Bus1=4037 Bus2=4088 R1=0.01687 X1=0.00132
New line.4037-4090 Bus1=4037 Bus2=4090 R1=0.02498 X1=0.00213
New line.4038-4039 Bus1=4038 Bus2=4039 R1=0.00249 X1=0.00066
New line.4038-4087 Bus1=4038 Bus2=4087 R1=0.01610 X1=0.00123
New line.4039-4041 Bus1=4039 Bus2=4041 R1=0.00074 X1=0.00020
New line.4039-4093 Bus1=4039 Bus2=4093 R1=0.01583 X1=0.00121
New line.4040-4091 Bus1=4040 Bus2=4091 R1=0.00615 X1=0.00047
New line.4040-4092 Bus1=4040 Bus2=4092 R1=0.00693 X1=0.00053
New line.4041-4042 Bus1=4041 Bus2=4042 R1=0.00264 X1=0.00070
New line.4041-4050 Bus1=4041 Bus2=4050 R1=0.01747 X1=0.00134
New line.4042-4043 Bus1=4042 Bus2=4043 R1=0.00937 X1=0.00072
New line.4042-4044 Bus1=4042 Bus2=4044 R1=0.00288 X1=0.00077
New line.4043-4094 Bus1=4043 Bus2=4094 R1=0.00743 X1=0.00057
New line.4043-4097 Bus1=4043 Bus2=4097 R1=0.00846 X1=0.00065
New line.4044-4045 Bus1=4044 Bus2=4045 R1=0.00469 X1=0.00081
New line.4044-4095 Bus1=4044 Bus2=4095 R1=0.01722 X1=0.00132
New line.4045-4046 Bus1=4045 Bus2=4046 R1=0.00715 X1=0.00114
New line.4045-4055 Bus1=4045 Bus2=4055 R1=0.01466 X1=0.00112
New line.4046-4047 Bus1=4046 Bus2=4047 R1=0.01295 X1=0.00099
New line.4046-4048 Bus1=4046 Bus2=4048 R1=0.00798 X1=0.00128
New line.4047-4096 Bus1=4047 Bus2=4096 R1=0.00779 X1=0.00060
New line.4047-4100 Bus1=4047 Bus2=4100 R1=0.00662 X1=0.00051
New line.4048-4049 Bus1=4048 Bus2=4049 R1=0.01250 X1=0.00096
New line.4048-4051 Bus1=4048 Bus2=4051 R1=0.00913 X1=0.00146
New line.4049-4098 Bus1=4049 Bus2=4098 R1=0.00820 X1=0.00063
New line.4049-4102 Bus1=4049 Bus2=4102 R1=0.00651 X1=0.00050
New line.4050-4052 Bus1=4050 Bus2=4052 R1=0.00264 X1=0.00020
New line.4050-4101 Bus1=4050 Bus2=4101 R1=0.01124 X1=0.00086
New line.4051-4053 Bus1=4051 Bus2=4053 R1=0.01979 X1=0.00205
New line.4051-4054 Bus1=4051 Bus2=4054 R1=0.01239 X1=0.00095
New line.4052-4103 Bus1=4052 Bus2=4103 R1=0.00324 X1=0.00025
New line.4052-4104 Bus1=4052 Bus2=4104 R1=0.00864 X1=0.00066
New line.4053-4105 Bus1=4053 Bus2=4105 R1=0.00944 X1=0.00064
New line.4053-4108 Bus1=4053 Bus2=4108 R1=0.01174 X1=0.00079
New line.4054-4107 Bus1=4054 Bus2=4107 R1=0.00897 X1=0.00095
New line.4054-4110 Bus1=4054 Bus2=4110 R1=0.00931 X1=0.00071
New line.4055-4106 Bus1=4055 Bus2=4106 R1=0.00375 X1=0.00029
New line.4055-4109 Bus1=4055 Bus2=4109 R1=0.01115 X1=0.00085
New line.5001-5002 Bus1=5001 Bus2=5002 R1=0.00975 X1=0.00155
New line.5002-5003 Bus1=5002 Bus2=5003 R1=0.00679 X1=0.00052
New line.5002-5004 Bus1=5002 Bus2=5004 R1=0.00563 X1=0.00090
New line.5003-5056 Bus1=5003 Bus2=5056 R1=0.00615 X1=0.00047
New line.5003-5058 Bus1=5003 Bus2=5058 R1=0.00776 X1=0.00059
New line.5004-5005 Bus1=5004 Bus2=5005 R1=0.00659 X1=0.00050
New line.5004-5006 Bus1=5004 Bus2=5006 R1=0.00944 X1=0.00150
New line.5005-5057 Bus1=5005 Bus2=5057 R1=0.00708 X1=0.00054
New line.5005-5061 Bus1=5005 Bus2=5061 R1=0.00741 X1=0.00057
New line.5006-5007 Bus1=5006 Bus2=5007 R1=0.00950 X1=0.00073
New line.5006-5008 Bus1=5006 Bus2=5008 R1=0.00597 X1=0.00095
New line.5007-5059 Bus1=5007 Bus2=5059 R1=0.00464 X1=0.00036
New line.5007-5060 Bus1=5007 Bus2=5060 R1=0.00464 X1=0.00036
New line.5008-5009 Bus1=5008 Bus2=5009 R1=0.00392 X1=0.00062
New line.5008-5012 Bus1=5008 Bus2=5012 R1=0.00131 X1=0.00099
New line.5009-5010 Bus1=5009 Bus2=5010 R1=0.00037 X1=0.00028
New line.5009-5017 Bus1=5009 Bus2=5017 R1=0.00772 X1=0.00206
New line.5010-5011 Bus1=5010 Bus2=5011 R1=0.00143 X1=0.00109
New line.5010-5069 Bus1=5010 Bus2=5069 R1=0.01650 X1=0.00126
New line.5011-5018 Bus1=5011 Bus2=5018 R1=0.01286 X1=0.00098
New line.5011-5021 Bus1=5011 Bus2=5021 R1=0.01342 X1=0.00202
New line.5012-5013 Bus1=5012 Bus2=5013 R1=0.00109 X1=0.00083
New line.5012-5062 Bus1=5012 Bus2=5062 R1=0.02132 X1=0.00163
New line.5013-5014 Bus1=5013 Bus2=5014 R1=0.01432 X1=0.00110
New line.5013-5015 Bus1=5013 Bus2=5015 R1=0.00126 X1=0.00095
New line.5014-5063 Bus1=5014 Bus2=5063 R1=0.00795 X1=0.00061
New line.5014-5067 Bus1=5014 Bus2=5067 R1=0.00947 X1=0.00072
New line.5015-5016 Bus1=5015 Bus2=5016 R1=0.01632 X1=0.00170
New line.5015-5064 Bus1=5015 Bus2=5064 R1=0.02123 X1=0.00162
New line.5016-5065 Bus1=5016 Bus2=5065 R1=0.00610 X1=0.00047
New line.5016-5066 Bus1=5016 Bus2=5066 R1=0.00610 X1=0.00047
New line.5017-5019 Bus1=5017 Bus2=5019 R1=0.00112 X1=0.00030
New line.5017-5076 Bus1=5017 Bus2=5076 R1=0.01670 X1=0.00128
New line.5018-5068 Bus1=5018 Bus2=5068 R1=0.00792 X1=0.00061
New line.5018-5070 Bus1=5018 Bus2=5070 R1=0.00552 X1=0.00042
New line.5019-5020 Bus1=5019 Bus2=5020 R1=0.00137 X1=0.00036
New line.5019-5074 Bus1=5019 Bus2=5074 R1=0.01721 X1=0.00132
New line.5020-5022 Bus1=5020 Bus2=5022 R1=0.00386 X1=0.00062
New line.5020-5026 Bus1=5020 Bus2=5026 R1=0.00200 X1=0.00053
New line.5021-5071 Bus1=5021 Bus2=5071 R1=0.00818 X1=0.00063
New line.5021-5072 Bus1=5021 Bus2=5072 R1=0.00382 X1=0.00029
New line.5022-5023 Bus1=5022 Bus2=5023 R1=0.00501 X1=0.00080
New line.5022-5025 Bus1=5022 Bus2=5025 R1=0.00885 X1=0.00068
New line.5023-5024 Bus1=5023 Bus2=5024 R1=0.00313 X1=0.00050
New line.5023-5073 Bus1=5023 Bus2=5073 R1=0.01466 X1=0.00112
New line.5024-5028 Bus1=5024 Bus2=5028 R1=0.01766 X1=0.00282
New line.5024-5078 Bus1=5024 Bus2=5078 R1=0.01815 X1=0.00139
New line.5025-5075 Bus1=5025 Bus2=5075 R1=0.00598 X1=0.00046
New line.5025-5077 Bus1=5025 Bus2=5077 R1=0.00980 X1=0.00075
New line.5026-5027 Bus1=5026 Bus2=5027 R1=0.00202 X1=0.00054
New line.5026-5079 Bus1=5026 Bus2=5079 R1=0.02442 X1=0.00187
New line.5027-5031 Bus1=5027 Bus2=5031 R1=0.00721 X1=0.00192
New line.5027-5033 Bus1=5027 Bus2=5033 R1=0.01228 X1=0.00094
New line.5028-5029 Bus1=5028 Bus2=5029 R1=0.00637 X1=0.00102
New line.5028-5089 Bus1=5028 Bus2=5089 R1=0.01901 X1=0.00145
New line.5029-5030 Bus1=5029 Bus2=5030 R1=0.01182 X1=0.00090
New line.5029-5032 Bus1=5029 Bus2=5032 R1=0.00753 X1=0.00120
New line.5030-5080 Bus1=5030 Bus2=5080 R1=0.00768 X1=0.00059
New line.5030-5085 Bus1=5030 Bus2=5085 R1=0.00638 X1=0.00049
New line.5031-5036 Bus1=5031 Bus2=5036 R1=0.00080 X1=0.00021
New line.5031-5081 Bus1=5031 Bus2=5081 R1=0.01204 X1=0.00092
New line.5032-5034 Bus1=5032 Bus2=5034 R1=0.01226 X1=0.00094
New line.5032-5035 Bus1=5032 Bus2=5035 R1=0.00607 X1=0.00097
New line.5033-5082 Bus1=5033 Bus2=5082 R1=0.00642 X1=0.00049
New line.5033-5083 Bus1=5033 Bus2=5083 R1=0.01127 X1=0.00086
New line.5034-5084 Bus1=5034 Bus2=5084 R1=0.00765 X1=0.00059
New line.5034-5086 Bus1=5034 Bus2=5086 R1=0.00733 X1=0.00056
New line.5035-5037 Bus1=5035 Bus2=5037 R1=0.00342 X1=0.00055
New line.5035-5040 Bus1=5035 Bus2=5040 R1=0.01577 X1=0.00121
New line.5036-5038 Bus1=5036 Bus2=5038 R1=0.00131 X1=0.00035
New line.5036-5099 Bus1=5036 Bus2=5099 R1=0.01807 X1=0.00138
New line.5037-5088 Bus1=5037 Bus2=5088 R1=0.01687 X1=0.00132
New line.5037-5090 Bus1=5037 Bus2=5090 R1=0.02498 X1=0.00213
New line.5038-5039 Bus1=5038 Bus2=5039 R1=0.00249 X1=0.00066
New line.5038-5087 Bus1=5038 Bus2=5087 R1=0.01610 X1=0.00123
New line.5039-5041 Bus1=5039 Bus2=5041 R1=0.00074 X1=0.00020
New line.5039-5093 Bus1=5039 Bus2=5093 R1=0.01583 X1=0.00121
New line.5040-5091 Bus1=5040 Bus2=5091 R1=0.00615 X1=0.00047
New line.5040-5092 Bus1=5040 Bus2=5092 R1=0.00693 X1=0.00053
New line.5041-5042 Bus1=5041 Bus2=5042 R1=0.00264 X1=0.00070
New line.5041-5050 Bus1=5041 Bus2=5050 R1=0.01747 X1=0.00134
New line.5042-5043 Bus1=5042 Bus2=5043 R1=0.00937 X1=0.00072
New line.5042-5044 Bus1=5042 Bus2=5044 R1=0.00288 X1=0.00077
New line.5043-5094 Bus1=5043 Bus2=5094 R1=0.00743 X1=0.00057
New line.5043-5097 Bus1=5043 Bus2=5097 R1=0.00846 X1=0.00065
New line.5044-5045 Bus1=5044 Bus2=5045 R1=0.00469 X1=0.00081
New line.5044-5095 Bus1=5044 Bus2=5095 R1=0.01722 X1=0.00132
New line.5045-5046 Bus1=5045 Bus2=5046 R1=0.00715 X1=0.00114
New line.5045-5055 Bus1=5045 Bus2=5055 R1=0.01466 X1=0.00112
New line.5046-5047 Bus1=5046 Bus2=5047 R1=0.01295 X1=0.00099
New line.5046-5048 Bus1=5046 Bus2=5048 R1=0.00798 X1=0.00128
New line.5047-5096 Bus1=5047 Bus2=5096 R1=0.00779 X1=0.00060
New line.5047-5100 Bus1=5047 Bus2=5100 R1=0.00662 X1=0.00051
New line.5048-5049 Bus1=5048 Bus2=5049 R1=0.01250 X1=0.00096
New line.5048-5051 Bus1=5048 Bus2=5051 R1=0.00913 X1=0.00146
New line.5049-5098 Bus1=5049 Bus2=5098 R1=0.00820 X1=0.00063
New line.5049-5102 Bus1=5049 Bus2=5102 R1=0.00651 X1=0.00050
New line.5050-5052 Bus1=5050 Bus2=5052 R1=0.00264 X1=0.00020
New line.5050-5101 Bus1=5050 Bus2=5101 R1=0.01124 X1=0.00086
New line.5051-5053 Bus1=5051 Bus2=5053 R1=0.01979 X1=0.00205
New line.5051-5054 Bus1=5051 Bus2=5054 R1=0.01239 X1=0.00095
New line.5052-5103 Bus1=5052 Bus2=5103 R1=0.00324 X1=0.00025
New line.5052-5104 Bus1=5052 Bus2=5104 R1=0.00864 X1=0.00066
New line.5053-5105 Bus1=5053 Bus2=5105 R1=0.00944 X1=0.00064
New line.5053-5108 Bus1=5053 Bus2=5108 R1=0.01174 X1=0.00079
New line.5054-5107 Bus1=5054 Bus2=5107 R1=0.00897 X1=0.00095
New line.5054-5110 Bus1=5054 Bus2=5110 R1=0.00931 X1=0.00071
New line.5055-5106 Bus1=5055 Bus2=5106 R1=0.00375 X1=0.00029
New line.5055-5109 Bus1=5055 Bus2=5109 R1=0.01115 X1=0.00085
New line.6001-6002 Bus1=6001 Bus2=6002 R1=0.00975 X1=0.00155
New line.6002-6003 Bus1=6002 Bus2=6003 R1=0.00679 X1=0.00052
New line.6002-6004 Bus1=6002 Bus2=6004 R1=0.00563 X1=0.00090
New line.6003-6056 Bus1=6003 Bus2=6056 R1=0.00615 X1=0.00047
New line.6003-6058 Bus1=6003 Bus2=6058 R1=0.00776 X1=0.00059
New line.6004-6005 Bus1=6004 Bus2=6005 R1=0.00659 X1=0.00050
New line.6004-6006 Bus1=6004 Bus2=6006 R1=0.00944 X1=0.00150
New line.6005-6057 Bus1=6005 Bus2=6057 R1=0.00708 X1=0.00054
New line.6005-6061 Bus1=6005 Bus2=6061 R1=0.00741 X1=0.00057
New line.6006-6007 Bus1=6006 Bus2=6007 R1=0.00950 X1=0.00073
New line.6006-6008 Bus1=6006 Bus2=6008 R1=0.00597 X1=0.00095
New line.6007-6059 Bus1=6007 Bus2=6059 R1=0.00464 X1=0.00036
New line.6007-6060 Bus1=6007 Bus2=6060 R1=0.00464 X1=0.00036
New line.6008-6009 Bus1=6008 Bus2=6009 R1=0.00392 X1=0.00062
New line.6008-6012 Bus1=6008 Bus2=6012 R1=0.00131 X1=0.00099
New line.6009-6010 Bus1=6009 Bus2=6010 R1=0.00037 X1=0.00028
New line.6009-6017 Bus1=6009 Bus2=6017 R1=0.00772 X1=0.00206
New line.6010-6011 Bus1=6010 Bus2=6011 R1=0.00143 X1=0.00109
New line.6010-6069 Bus1=6010 Bus2=6069 R1=0.01650 X1=0.00126
New line.6011-6018 Bus1=6011 Bus2=6018 R1=0.01286 X1=0.00098