New Load.2056.1 Phases=1 Bus1=2056.1 kW=0 kvar=0 kv=0.240 vminpu=0.9 vmaxpu=1.1
New Load.2057.2 Phases=1 Bus1=2057.2 kW=0 kvar=0 kv=0.240 vminpu=0.9 vmaxpu=1.1
New Load.2058.1 Phases=1 Bus1=2058.1 kW=0 kvar=0 kv=0.240 vminpu=0.9 vmaxpu=1.1
New Load.2059.1 Phases=1 Bus1=2059.1 kW=0 kvar=0 kv=0.240 vminpu=0.9 vmaxpu=1.1
New Load.2060.1 Phases=1 Bus1=2060.1 kW=0 kvar=0 kv=0.240 vminpu=0.9 vmaxpu=1.1
New Load.2061.2 Phases=1 Bus1=2061.2 kW=0 kvar=0 kv=0.240 vminpu=0.9 vmaxpu=1.1
New Load.2062.2 Phases=1 Bus1=2062.2 kW=0 kvar=0 kv=0.240 vminpu=0.9 vmaxpu=1.1
New Load.2063.3 Phases=1 Bus1=2063.3 kW=0 kvar=0 kv=0.240 vminpu=0.9 vmaxpu=1.1
New Load.2064.1 Phases=1 Bus1=2064.1 kW=0 kvar=0 kv=0.240 vminpu=0.9 vmaxpu=1.1
New Load.2065.2 Phases=1 Bus1=2065.2 kW=0 kvar=0 kv=0.240 vminpu=0.9 vmaxpu=1.1
New Load.2066.2 Phases=1 Bus1=2066.2 kW=0 kvar=0 kv=0.240 vminpu=0.9 vmaxpu=1.1
New Load.2067.3 Phases=1 Bus1=2067.3 kW=0 kvar=0 kv=0.240 vminpu=0.9 vmaxpu=1.1
New Load.2068.2 Phases=1 Bus1=2068.2 kW=0 kvar=0 kv=0.240 vminpu=0.9 vmaxpu=1.1
New Load.2069.1 Phases=1 Bus1=2069.1 kW=0 kvar=0 kv=0.240 vminpu=0.9 vmaxpu=1.1
New Load.2070.2 Phases=1 Bus1=2070.2 kW=0 kvar=0 kv=0.240 vminpu=0.9 vmaxpu=1.1
New Load.2071.3 Phases=1 Bus1=2071.3 kW=0 kvar=0 kv=0.240 vminpu=0.9 vmaxpu=1.1
New Load.2072.3 Phases=1 Bus1=2072.3 kW=0 kvar=0 kv=0.240 vminpu=0.9 vmaxpu=1.1
New Load.2073.3 Phases=1 Bus1=2073.3 kW=0 kvar=0 kv=0.240 vminpu=0.9 vmaxpu=1.1
New Load.2074.3 Phases=1 Bus1=2074.3 kW=0 kvar=0 kv=0.240 vminpu=0.9 vmaxpu=1.1
New Load.2075.1 Phases=1 Bus1=2075.1 kW=0 kvar=0 kv=0.240 vminpu=0.9 vmaxpu=1.1
New Load.2076.1 Phases=1 Bus1=2076.1 kW=0 kvar=0 kv=0.240 vminpu=0.9 vmaxpu=1.1
New Load.2077.1 Phases=1 Bus1=2077.1 kW=0 kvar=0 kv=0.240 vminpu=0.9 vmaxpu=1.1
New Load.2078.2 Phases=1 Bus1=2078.2 kW=0 kvar=0 kv=0.240 vminpu=0.9 vmaxpu=1.1
New Load.2079.3 Phases=1 Bus1=2079.3 kW=0 kvar=0 kv=0.240 vminpu=0.9 vmaxpu=1.1
New Load.2080.1 Phases=1 Bus1=2080.1 kW=0 kvar=0 kv=0.240 vminpu=0.9 vmaxpu=1.1
New Load.2081.2 Phases=1 Bus1=2081.2 kW=0 kvar=0 kv=0.240 vminpu=0.9 vmaxpu=1.1
New Load.2082.3 Phases=1 Bus1=2082.3 kW=0 kvar=0 kv=0.240 vminpu=0.9 vmaxpu=1.1
New Load.2083.3 Phases=1 Bus1=2083.3 kW=0 kvar=0 kv=0.240 vminpu=0.9 vmaxpu=1.1
New Load.2084.1 Phases=1 Bus1=2084.1 kW=0 kvar=0 kv=0.240 vminpu=0.9 vmaxpu=1.1
New Load.2085.1 Phases=1 Bus1=2085.1 kW=0 kvar=0 kv=0.240 vminpu=0.9 vmaxpu=1.1
New Load.2086.1 Phases=1 Bus1=2086.1 kW=0 kvar=0 kv=0.240 vminpu=0.9 vmaxpu=1.1
New Load.2087.3 Phases=1 Bus1=2087.3 kW=0 kvar=0 kv=0.240 vminpu=0.9 vmaxpu=1.1
New Load.2088.3 Phases=1 Bus1=2088.3 kW=0 kvar=0 kv=0.240 vminpu=0.9 vmaxpu=1.1
New Load.2089.1 Phases=1 Bus1=2089.1 kW=0 kvar=0 kv=0.240 vminpu=0.9 vmaxpu=1.1
New Load.2090.2 Phases=1 Bus1=2090.2 kW=0 kvar=0 kv=0.240 vminpu=0.9 vmaxpu=1.1
New Load.2091.2 Phases=1 Bus1=2091.2 kW=0 kvar=0 kv=0.240 vminpu=0.9 vmaxpu=1.1
New Load.2092.2 Phases=1 Bus1=2092.2 kW=0 kvar=0 kv=0.240 vminpu=0.9 vmaxpu=1.1
New Load.2093.2 Phases=1 Bus1=2093.2 kW=0 kvar=0 kv=0.240 vminpu=0.9 vmaxpu=1.1
New Load.2094.3 Phases=1 Bus1=2094.3 kW=0 kvar=0 kv=0.240 vminpu=0.9 vmaxpu=1.1
New Load.2095.2 Phases=1 Bus1=2095.2 kW=0 kvar=0 kv=0.240 vminpu=0.9 vmaxpu=1.1
New Load.2096.2 Phases=1 Bus1=2096.2 kW=0 kvar=0 kv=0.240 vminpu=0.9 vmaxpu=1.1
New Load.2097.3 Phases=1 Bus1=2097.3 kW=0 kvar=0 kv=0.240 vminpu=0.9 vmaxpu=1.1
New Load.2098.3 Phases=1 Bus1=2098.3 kW=0 kvar=0 kv=0.240 vminpu=0.9 vmaxpu=1.1
New Load.2099.2 Phases=1 Bus1=2099.2 kW=0 kvar=0 kv=0.240 vminpu=0.9 vmaxpu=1.1
New Load.2100.2 Phases=1 Bus1=2100.2 kW=0 kvar=0 kv=0.240 vminpu=0.9 vmaxpu=1.1
New Load.2101.1 Phases=1 Bus1=2101.1 kW=0 kvar=0 kv=0.240 vminpu=0.9 vmaxpu=1.1
New Load.2102.3 Phases=1 Bus1=2102.3 kW=0 kvar=0 kv=0.240 vminpu=0.9 vmaxpu=1.1
New Load.2103.1 Phases=1 Bus1=2103.1 kW=0 kvar=0 kv=0.240 vminpu=0.9 vmaxpu=1.1
New Load.2104.1 Phases=1 Bus1=2104.1 kW=0 kvar=0 kv=0.240 vminpu=0.9 vmaxpu=1.1
New Load.2105.2 Phases=1 Bus1=2105.2 kW=0 kvar=0 kv=0.240 vminpu=0.9 vmaxpu=1.1
New Load.2106.1 Phases=1 Bus1=2106.1 kW=0 kvar=0 kv=0.240 vminpu=0.9 vmaxpu=1.1
New Load.2107.1 Phases=1 Bus1=2107.1 kW=0 kvar=0 kv=0.240 vminpu=0.9 vmaxpu=1.1
New Load.2108.2 Phases=1 Bus1=2108.2 kW=0 kvar=0 kv=0.240 vminpu=0.9 vmaxpu=1.1
New Load.2109.1 Phases=1 Bus1=2109.1 kW=0 kvar=0 kv=0.240 vminpu=0.9 vmaxpu=1.1
New Load.2110.1 Phases=1 Bus1=2110.1 kW=0 kvar=0 kv=0.240 vminpu=0.9 vmaxpu=1.1
New Load.3056.1 Phases=1 Bus1=3056.1 kW=0 kvar=0 kv=0.240 vminpu=0.9 vmaxpu=1.1
New Load.3057.2 Phases=1 Bus1=3057.2 kW=0 kvar=0 kv=0.240 vminpu=0.9 vmaxpu=1.1
New Load.3058.1 Phases=1 Bus1=3058.1 kW=0 kvar=0 kv=0.240 vminpu=0.9 vmaxpu=1.1
New Load.3059.1 Phases=1 Bus1=3059.1 kW=0 kvar=0 kv=0.240 vminpu=0.9 vmaxpu=1.1
New Load.3060.1 Phases=1 Bus1=3060.1 kW=0 kvar=0 kv=0.240 vminpu=0.9 vmaxpu=1.1
New Load.3061.2 Phases=1 Bus1=3061.2 kW=0 kvar=0 kv=0.240 vminpu=0.9 vmaxpu=1.1
New Load.3062.2 Phases=1 Bus1=3062.2 kW=0 kvar=0 kv=0.240 vminpu=0.9 vmaxpu=1.1
New Load.3063.3 Phases=1 Bus1=3063.3 kW=0 kvar=0 kv=0.240 vminpu=0.9 vmaxpu=1.1
New Load.3064.1 Phases=1 Bus1=3064.1 kW=0 kvar=0 kv=0.240 vminpu=0.9 vmaxpu=1.1
New Load.3065.2 Phases=1 Bus1=3065.2 kW=0 kvar=0 kv=0.240 vminpu=0.9 vmaxpu=1.1
New Load.3066.2 Phases=1 Bus1=3066.2 kW=0 kvar=0 kv=0.240 vminpu=0.9 vmaxpu=1.1
New Load.3067.3 Phases=1 Bus1=3067.3 kW=0 kvar=0 kv=0.240 vminpu=0.9 vmaxpu=1.1
New Load.3068.2 Phases=1 Bus1=3068.2 kW=0 kvar=0 kv=0.240 vminpu=0.9 vmaxpu=1.1
New Load.3069.1 Phases=1 Bus1=3069.1 kW=0 kvar=0 kv=0.240 vminpu=0.9 vmaxpu=1.1
New Load.3070.2 Phases=1 Bus1=3070.2 kW=0 kvar=0 kv=0.240 vminpu=0.9 vmaxpu=1.1
New Load.3071.3 Phases=1 Bus1=3071.3 kW=0 kvar=0 kv=0.240 vminpu=0.9 vmaxpu=1.1
New Load.3072.3 Phases=1 Bus1=3072.3 kW=0 kvar=0 kv=0.240 vminpu=0.9 vmaxpu=1.1
New Load.3073.3 Phases=1 Bus1=3073.3 kW=0 kvar=0 kv=0.240 vminpu=0.9 vmaxpu=1.1
New Load.3074.3 Phases=1 Bus1=3074.3 kW=0 kvar=0 kv=0.240 vminpu=0.9 vmaxpu=1.1
New Load.3075.1 Phases=1 Bus1=3075.1 kW=0 kvar=0 kv=0.240 vminpu=0.9 vmaxpu=1.1
New Load.3076.1 Phases=1 Bus1=3076.1 kW=0 kvar=0 kv=0.240 vminpu=0.9 vmaxpu=1.1
New Load.3077.1 Phases=1 Bus1=3077.1 kW=0 kvar=0 kv=0.240 vminpu=0.9 vmaxpu=1.1
New Load.3078.2 Phases=1 Bus1=3078.2 kW=0 kvar=0 kv=0.240 vminpu=0.9 vmaxpu=1.1
New Load.3079.3 Phases=1 Bus1=3079.3 kW=0 kvar=0 kv=0.240 vminpu=0.9 vmaxpu=1.1
New Load.3080.1 Phases=1 Bus1=3080.1 kW=0 kvar=0 kv=0.240 vminpu=0.9 vmaxpu=1.1
New Load.3081.2 Phases=1 Bus1=3081.2 kW=0 kvar=0 kv=0.240 vminpu=0.9 vmaxpu=1.1
New Load.3082.3 Phases=1 Bus1=3082.3 kW=0 kvar=0 kv=0.240 vminpu=0.9 vmaxpu=1.1
New Load.3083.3 Phases=1 Bus1=3083.3 kW=0 kvar=0 kv=0.240 vminpu=0.9 vmaxpu=1.1
New Load.3084.1 Phases=1 Bus1=3084.1 kW=0 kvar=0 kv=0.240 vminpu=0.9 vmaxpu=1.1
New Load.3085.1 Phases=1 Bus1=3085.1 kW=0 kvar=0 kv=0.240 vminpu=0.9 vmaxpu=1.1
New Load.3086.1 Phases=1 Bus1=3086.1 kW=0 kvar=0 kv=0.240 vminpu=0.9 vmaxpu=1.1
New Load.3087.3 Phases=1 Bus1=3087.3 kW=0 kvar=0 kv=0.240 vminpu=0.9 vmaxpu=1.1
New Load.3088.3 Phases=1 Bus1=3088.3 kW=0 kvar=0 kv=0.240 vminpu=0.9 vmaxpu=1.1
New Load.3089.1 Phases=1 Bus1=3089.1 kW=0 kvar=0 kv=0.240 vminpu=0.9 vmaxpu=1.1
New Load.3090.2 Phases=1 Bus1=3090.2 kW=0 kvar=0 kv=0.240 vminpu=0.9 vmaxpu=1.1
New Load.3091.2 Phases=1 Bus1=3091.2 kW=0 kvar=0 kv=0.240 vminpu=0.9 vmaxpu=1.1
New Load.3092.2 Phases=1 Bus1=3092.2 kW=0 kvar=0 kv=0.240 vminpu=0.9 vmaxpu=1.1
New Load.3093.2 Phases=1 Bus1=3093.2 kW=0 kvar=0 kv=0.240 vminpu=0.9 vmaxpu=1.1
New Load.3094.3 Phases=1 Bus1=3094.3 kW=0 kvar=0 kv=0.240 vminpu=0.9 vmaxpu=1.1
New Load.3095.2 Phases=1 Bus1=3095.2 kW=0 kvar=0 kv=0.240 vminpu=0.9 vmaxpu=1.1
New Load.3096.2 Phases=1 Bus1=3096.2 kW=0 kvar=0 kv=0.240 vminpu=0.9 vmaxpu=1.1
New Load.3097.3 Phases=1 Bus1=3097.3 kW=0 kvar=0 kv=0.240 vminpu=0.9 vmaxpu=1.1
New Load.3098.3 Phases=1 Bus1=3098.3 kW=0 kvar=0 kv=0.240 vminpu=0.9 vmaxpu=1.1
New Load.3099.2 Phases=1 Bus1=3099.2 kW=0 kvar=0 kv=0.240 vminpu=0.9 vmaxpu=1.1
New Load.3100.2 Phases=1 Bus1=3100.2 kW=0 kvar=0 kv=0.240 vminpu=0.9 vmaxpu=1.1
New Load.3101.1 Phases=1 Bus1=3101.1 kW=0 kvar=0 kv=0.240 vminpu=0.9 vmaxpu=1.1
New Load.3102.3 Phases=1 Bus1=3102.3 kW=0 kvar=0 kv=0.240 vminpu=0.9 vmaxpu=1.1
New Load.3103.1 Phases=1 Bus1=3103.1 kW=0 kvar=0 kv=0.240 vminpu=0.9 vmaxpu=1.1
New Load.3104.1 Phases=1 Bus1=3104.1 kW=0 kvar=0 kv=0.240 vminpu=0.9 vmaxpu=1.1
New Load.3105.2 Phases=1 Bus1=3105.2 kW=0 kvar=0 kv=0.240 vminpu=0.9 vmaxpu=1.1
New Load.3106.1 Phases=1 Bus1=3106.1 kW=0 kvar=0 kv=0.240 vminpu=0.9 vmaxpu=1.1
New Load.3107.1 Phases=1 Bus1=3107.1 kW=0 kvar=0 kv=0.240 vminpu=0.9 vmaxpu=1.1
New Load.3108.2 Phases=1 Bus1=3108.2 kW=0 kvar=0 kv=0.240 vminpu=0.9 vmaxpu=1.1
New Load.3109.1 Phases=1 Bus1=3109.1 kW=0 kvar=0 kv=0.240 vminpu=0.9 vmaxpu=1.1
New Load.3110.1 Phases=1 Bus1=3110.1 kW=0 kvar=0 kv=0.240 vminpu=0.9 vmaxpu=1.1
New Load.4056.1 Phases=1 Bus1=4056.1 kW=0 kvar=0 kv=0.240 vminpu=0.9 vmaxpu=1.1
New Load.4057.2 Phases=1 Bus1=4057.2 kW=0 kvar=0 kv=0.240 vminpu=0.9 vmaxpu=1.1
New Load.4058.1 Phases=1 Bus1=4058.1 kW=0 kvar=0 kv=0.240 vminpu=0.9 vmaxpu=1.1
New Load.4059.1 Phases=1 Bus1=4059.1 kW=0 kvar=0 kv=0.240 vminpu=0.9 vmaxpu=1.1
New Load.4060.1 Phases=1 Bus1=4060.1 kW=0 kvar=0 kv=0.240 vminpu=0.9 vmaxpu=1.1
New Load.4061.2 Phases=1 Bus1=4061.2 kW=0 kvar=0 kv=0.240 vminpu=0.9 vmaxpu=1.1
New Load.4062.2 Phases=1 Bus1=4062.2 kW=0 kvar=0 kv=0.240 vminpu=0.9 vmaxpu=1.1
New Load.4063.3 Phases=1 Bus1=4063.3 kW=0 kvar=0 kv=0.240 vminpu=0.9 vmaxpu=1.1
New Load.4064.1 Phases=1 Bus1=4064.1 kW=0 kvar=0 kv=0.240 vminpu=0.9 vmaxpu=1.1
New Load.4065.2 Phases=1 Bus1=4065.2 kW=0 kvar=0 kv=0.240 vminpu=0.9 vmaxpu=1.1
New Load.4066.2 Phases=1 Bus1=4066.2 kW=0 kvar=0 kv=0.240 vminpu=0.9 vmaxpu=1.1
New Load.4067.3 Phases=1 Bus1=4067.3 kW=0 kvar=0 kv=0.240 vminpu=0.9 vmaxpu=1.1
New Load.4068.2 Phases=1 Bus1=4068.2 kW=0 kvar=0 kv=0.240 vminpu=0.9 vmaxpu=1.1
New Load.4069.1 Phases=1 Bus1=4069.1 kW=0 kvar=0 kv=0.240 vminpu=0.9 vmaxpu=1.1
New Load.4070.2 Phases=1 Bus1=4070.2 kW=0 kvar=0 kv=0.240 vminpu=0.9 vmaxpu=1.1
New Load.4071.3 Phases=1 Bus1=4071.3 kW=0 kvar=0 kv=0.240 vminpu=0.9 vmaxpu=1.1
New Load.4072.3 Phases=1 Bus1=4072.3 kW=0 kvar=0 kv=0.240 vminpu=0.9 vmaxpu=1.1
New Load.4073.3 Phases=1 Bus1=4073.3 kW=0 kvar=0 kv=0.240 vminpu=0.9 vmaxpu=1.1
New Load.4074.3 Phases=1 Bus1=4074.3 kW=0 kvar=0 kv=0.240 vminpu=0.9 vmaxpu=1.1
New Load.4075.1 Phases=1 Bus1=4075.1 kW=0 kvar=0 kv=0.240 vminpu=0.9 vmaxpu=1.1
New Load.4076.1 Phases=1 Bus1=4076.1 kW=0 kvar=0 kv=0.240 vminpu=0.9 vmaxpu=1.1
New Load.4077.1 Phases=1 Bus1=4077.1 kW=0 kvar=0 kv=0.240 vminpu=0.9 vmaxpu=1.1
New Load.4078.2 Phases=1 Bus1=4078.2 kW=0 kvar=0 kv=0.240 vminpu=0.9 vmaxpu=1.1
New Load.4079.3 Phases=1 Bus1=4079.3 kW=0 kvar=0 kv=0.240 vminpu=0.9 vmaxpu=1.1
New Load.4080.1 Phases=1 Bus1=4080.1 kW=0 kvar=0 kv=0.240 vminpu=0.9 vmaxpu=1.1
New Load.4081.2 Phases=1 Bus1=4081.2 kW=0 kvar=0 kv=0.240 vminpu=0.9 vmaxpu=1.1
New Load.4082.3 Phases=1 Bus1=4082.3 kW=0 kvar=0 kv=0.240 vminpu=0.9 vmaxpu=1.1
New Load.4083.3 Phases=1 Bus1=4083.3 kW=0 kvar=0 kv=0.240 vminpu=0.9 vmaxpu=1.1
New Load.4084.1 Phases=1 Bus1=4084.1 kW=0 kvar=0 kv=0.240 vminpu=0.9 vmaxpu=1.1
New Load.4085.1 Phases=1 Bus1=4085.1 kW=0 kvar=0 kv=0.240 vminpu=0.9 vmaxpu=1.1
New Load.4086.1 Phases=1 Bus1=4086.1 kW=0 kvar=0 kv=0.240 vminpu=0.9 vmaxpu=1.1
New Load.4087.3 Phases=1 Bus1=4087.3 kW=0 kvar=0 kv=0.240 vminpu=0.9 vmaxpu=1.1
New Load.4088.3 Phases=1 Bus1=4088.3 kW=0 kvar=0 kv=0.240 vminpu=0.9 vmaxpu=1.1
New Load.4089.1 Phases=1 Bus1=4089.1 kW=0 kvar=0 kv=0.240 vminpu=0.9 vmaxpu=1.1
New Load.4090.2 Phases=1 Bus1=4090.2 kW=0 kvar=0 kv=0.240 vminpu=0.9 vmaxpu=1.1
New Load.4091.2 Phases=1 Bus1=4091.2 kW=0 kvar=0 kv=0.240 vminpu=0.9 vmaxpu=1.1
New Load.4092.2 Phases=1 Bus1=4092.2 kW=0 kvar=0 kv=0.240 vminpu=0.9 vmaxpu=1.1
New Load.4093.2 Phases=1 Bus1=4093.2 kW=0 kvar=0 kv=0.240 vminpu=0.9 vmaxpu=1.1
New Load.4094.3 Phases=1 Bus1=4094.3 kW=0 kvar=0 kv=0.240 vminpu=0.9 vmaxpu=1.1
New Load.4095.2 Phases=1 Bus1=4095.2 kW=0 kvar=0 kv=0.240 vminpu=0.9 vmaxpu=1.1
New Load.4096.2 Phases=1 Bus1=4096.2 kW=0 kvar=0 kv=0.240 vminpu=0.9 vmaxpu=1.1
New Load.4097.3 Phases=1 Bus1=4097.3 kW=0 kvar=0 kv=0.240 vminpu=0.9 vmaxpu=1.1
New Load.4098.3 Phases=1 Bus1=4098.3 kW=0 kvar=0 kv=0.240 vminpu=0.9 vmaxpu=1.1
New Load.4099.2 Phases=1 Bus1=4099.2 kW=0 kvar=0 kv=0.240 vminpu=0.9 vmaxpu=1.1
New Load.4100.2 Phases=1 Bus1=4100.2 kW=0 kvar=0 kv=0.240 vminpu=0.9 vmaxpu=1.1
New Load.4101.1 Phases=1 Bus1=4101.1 kW=0 kvar=0 kv=0.240 vminpu=0.9 vmaxpu=1.1
New Load.4102.3 Phases=1 Bus1=4102.3 kW=0 kvar=0 kv=0.240 vminpu=0.9 vmaxpu=1.1
New Load.4103.1 Phases=1 Bus1=4103.1 kW=0 kvar=0 kv=0.240 vminpu=0.9 vmaxpu=1.1
New Load.4104.1 Phases=1 Bus1=4104.1 kW=0 kvar=0 kv=0.240 vminpu=0.9 vmaxpu=1.1
New Load.4105.2 Phases=1 Bus1=4105.2 kW=0 kvar=0 kv=0.240 vminpu=0.9 vmaxpu=1.1
New Load.4106.1 Phases=1 Bus1=4106.1 kW=0 kvar=0 kv=0.240 vminpu=0.9 vmaxpu=1.1
New Load.4107.1 Phases=1 Bus1=4107.1 kW=0 kvar=0 kv=0.240 vminpu=0.9 vmaxpu=1.1
New Load.4108.2 Phases=1 Bus1=4108.2 kW=0 kvar=0 kv=0.240 vminpu=0.9 vmaxpu=1.1
New Load.4109.1 Phases=1 Bus1=4109.1 kW=0 kvar=0 kv=0.240 vminpu=0.9 vmaxpu=1.1
New Load.4110.1 Phases=1 Bus1=4110.1 kW=0 kvar=0 kv=0.240 vminpu=0.9 vmaxpu=1.1
New Load.5056.1 Phases=1 Bus1=5056.1 kW=0 kvar=0 kv=0.240 vminpu=0.9 vmaxpu=1.1
New Load.5057.2 Phases=1 Bus1=5057.2 kW=0 kvar=0 kv=0.240 vminpu=0.9 vmaxpu=1.1
New Load.5058.1 Phases=1 Bus1=5058.1 kW=0 kvar=0 kv=0.240 vminpu=0.9 vmaxpu=1.1
New Load.5059.1 Phases=1 Bus1=5059.1 kW=0 kvar=0 kv=0.240 vminpu=0.9 vmaxpu=1.1
New Load.5060.1 Phases=1 Bus1=5060.1 kW=0 kvar=0 kv=0.240 vminpu=0.9 vmaxpu=1.1
New Load.5061.2 Phases=1 Bus1=5061.2 kW=0 kvar=0 kv=0.240 vminpu=0.9 vmaxpu=1.1
New Load.5062.2 Phases=1 Bus1=5062.2 kW=0 kvar=0 kv=0.240 vminpu=0.9 vmaxpu=1.1
New Load.5063.3 Phases=1 Bus1=5063.3 kW=0 kvar=0 kv=0.240 vminpu=0.9 vmaxpu=1.1
New Load.5064.1 Phases=1 Bus1=5064.1 kW=0 kvar=0 kv=0.240 vminpu=0.9 vmaxpu=1.1
New Load.5065.2 Phases=1 Bus1=5065.2 kW=0 kvar=0 kv=0.240 vminpu=0.9 vmaxpu=1.1
New Load.5066.2 Phases=1 Bus1=5066.2 kW=0 kvar=0 kv=0.240 vminpu=0.9 vmaxpu=1.1
New Load.5067.3 Phases=1 Bus1=5067.3 kW=0 kvar=0 kv=0.240 vminpu=0.9 vmaxpu=1.1
New Load.5068.2 Phases=1 Bus1=5068.2 kW=0 kvar=0 kv=0.240 vminpu=0.9 vmaxpu=1.1
New Load.5069.1 Phases=1 Bus1=5069.1 kW=0 kvar=0 kv=0.240 vminpu=0.9 vmaxpu=1.1
New Load.5070.2 Phases=1 Bus1=5070.2 kW=0 kvar=0 kv=0.240 vminpu=0.9 vmaxpu=1.1
New Load.5071.3 Phases=1 Bus1=5071.3 kW=0 kvar=0 kv=0.240 vminpu=0.9 vmaxpu=1.1
New Load.5072.3 Phases=1 Bus1=5072.3 kW=0 kvar=0 kv=0.240 vminpu=0.9 vmaxpu=1.1
New Load.5073.3 Phases=1 Bus1=5073.3 kW=0 kvar=0 kv=0.240 vminpu=0.9 vmaxpu=1.1
New Load.5074.3 Phases=1 Bus1=5074.3 kW=0 kvar=0 kv=0.240 vminpu=0.9 vmaxpu=1.1
New Load.5075.1 Phases=1 Bus1=5075.1 kW=0 kvar=0 kv=0.240 vminpu=0.9 vmaxpu=1.1
New Load.5076.1 Phases=1 Bus1=5076.1 kW=0 kvar=0 kv=0.240 vminpu=0.9 vmaxpu=1.1
New Load.5077.1 Phases=1 Bus1=5077.1 kW=0 kvar=0 kv=0.240 vminpu=0.9 vmaxpu=1.1
New Load.5078.2 Phases=1 Bus1=5078.2 kW=0 kvar=0 kv=0.240 vminpu=0.9 vmaxpu=1.1
New Load.5079.3 Phases=1 Bus1=5079.3 kW=0 kvar=0 kv=0.240 vminpu=0.9 vmaxpu=1.1
New Load.5080.1 Phases=1 Bus1=5080.1 kW=0 kvar=0 kv=0.240 vminpu=0.9 vmaxpu=1.1
New Load.5081.2 Phases=1 Bus1=5081.2 kW=0 kvar=0 kv=0.240 vminpu=0.9 vmaxpu=1.1
New Load.5082.3 Phases=1 Bus1=5082.3 kW=0 kvar=0 kv=0.240 vminpu=0.9 vmaxpu=1.1
New Load.5083.3 Phases=1 Bus1=5083.3 kW=0 kvar=0 kv=0.240 vminpu=0.9 vmaxpu=1.1
New Load.5084.1 Phases=1 Bus1=5084.1 kW=0 kvar=0 kv=0.240 vminpu=0.9 vmaxpu=1.1
New Load.5085.1 Phases=1 Bus1=5085.1 kW=0 kvar=0 kv=0.240 vminpu=0.9 vmaxpu=1.1
New Load.5086.1 Phases=1 Bus1=5086.1 kW=0 kvar=0 kv=0.240 vminpu=0.9 vmaxpu=1.1
New Load.5087.3 Phases=1 Bus1=5087.3 kW=0 kvar=0 kv=0.240 vminpu=0.9 vmaxpu=1.1
New Load.5088.3 Phases=1 Bus1=5088.3 kW=0 kvar=0 kv=0.240 vminpu=0.9 vmaxpu=1.1
New Load.5089.1 Phases=1 Bus1=5089.1 kW=0 kvar=0 kv=0.240 vminpu=0.9 vmaxpu=1.1
New Load.5090.2 Phases=1 Bus1=5090.2 kW=0 kvar=0 kv=0.240 vminpu=0.9 vmaxpu=1.1
New Load.5091.2 Phases=1 Bus1=5091.2 kW=0 kvar=0 kv=0.240 vminpu=0.9 vmaxpu=1.1
New Load.5092.2 Phases=1 Bus1=5092.2 kW=0 kvar=0 kv=0.240 vminpu=0.9 vmaxpu=1.1
New Load.5093.2 Phases=1 Bus1=5093.2 kW=0 kvar=0 kv=0.240 vminpu=0.9 vmaxpu=1.1
New Load.5094.3 Phases=1 Bus1=5094.3 kW=0 kvar=0 kv=0.240 vminpu=0.9 vmaxpu=1.1
New Load.5095.2 Phases=1 Bus1=5095.2 kW=0 kvar=0 kv=0.240 vminpu=0.9 vmaxpu=1.1
New Load.5096.2 Phases=1 Bus1=5096.2 kW=0 kvar=0 kv=0.240 vminpu=0.9 vmaxpu=1.1
New Load.5097.3 Phases=1 Bus1=5097.3 kW=0 kvar=0 kv=0.240 vminpu=0.9 vmaxpu=1.1
New Load.5098.3 Phases=1 Bus1=5098.3 kW=0 kvar=0 kv=0.240 vminpu=0.9 vmaxpu=1.1
New Load.5099.2 Phases=1 Bus1=5099.2 kW=0 kvar=0 kv=0.240 vminpu=0.9 vmaxpu=1.1
New Load.5100.2 Phases=1 Bus1=5100.2 kW=0 kvar=0 kv=0.240 vminpu=0.9 vmaxpu=1.1
New Load.5101.1 Phases=1 Bus1=5101.1 kW=0 kvar=0 kv=0.240 vminpu=0.9 vmaxpu=1.1
New Load.5102.3 Phases=1 Bus1=5102.3 kW=0 kvar=0 kv=0.240 vminpu=0.9 vmaxpu=1.1
New Load.5103.1 Phases=1 Bus1=5103.1 kW=0 kvar=0 kv=0.240 vminpu=0.9 vmaxpu=1.1
New Load.5104.1 Phases=1 Bus1=5104.1 kW=0 kvar=0 kv=0.240 vminpu=0.9 vmaxpu=1.1
New Load.5105.2 Phases=1 Bus1=5105.2 kW=0 kvar=0 kv=0.240 vminpu=0.9 vmaxpu=1.1
New Load.5106.1 Phases=1 Bus1=5106.1 kW=0 kvar=0 kv=0.240 vminpu=0.9 vmaxpu=1.1
New Load.5107.1 Phases=1 Bus1=5107.1 kW=0 kvar=0 kv=0.240 vminpu=0.9 vmaxpu=1.1
New Load.5108.2 Phases=1 Bus1=5108.2 kW=0 kvar=0 kv=0.240 vminpu=0.9 vmaxpu=1.1
New Load.5109.1 Phases=1 Bus1=5109.1 kW=0 kvar=0 kv=0.240 vminpu=0.9 vmaxpu=1.1
New Load.5110.1 Phases=1 Bus1=5110.1 kW=0 kvar=0 kv=0.240 vminpu=0.9 vmaxpu=1.1
New Load.6056.1 Phases=1 Bus1=6056.1 kW=0 kvar=0 kv=0.240 vminpu=0.9 vmaxpu=1.1
New Load.6057.2 Phases=1 Bus1=6057.2 kW=0 kvar=0 kv=0.240 vminpu=0.9 vmaxpu=1.1
New Load.6058.1 Phases=1 Bus1=6058.1 kW=0 kvar=0 kv=0.240 vminpu=0.9 vmaxpu=1.1
New Load.6059.1 Phases=1 Bus1=6059.1 kW=0 kvar=0 kv=0.240 vminpu=0.9 vmaxpu=1.1
New Load.6060.1 Phases=1 Bus1=6060.1 kW=0 kvar=0 kv=0.240 vminpu=0.9 vmaxpu=1.1
New Load.6061.2 Phases=1 Bus1=6061.2 kW=0 kvar=0 kv=0.240 vminpu=0.9 vmaxpu=1.1
New Load.6062.2 Phases=1 Bus1=6062.2 kW=0 kvar=0 kv=0.240 vminpu=0.9 vmaxpu=1.1
New Load.6063.3 Phases=1 Bus1=6063.3 kW=0 kvar=0 kv=0.240 vminpu=0.9 vmaxpu=1.1
New Load.6064.1 Phases=1 Bus1=6064.1 kW=0 kvar=0 kv=0.240 vminpu=0.9 vmaxpu=1.1
New Load.6065.2 Phases=1 Bus1=6065.2 kW=0 kvar=0 kv=0.240 vminpu=0.9 vmaxpu=1.1
New Load.6066.2 Phases=1 Bus1=6066.2 kW=0 kvar=0 kv=0.240 vminpu=0.9 vmaxpu=1.1
New Load.6067.3 Phases=1 Bus1=6067.3 kW=0 kvar=0 kv=0.240 vminpu=0.9 vmaxpu=1.1
New Load.6068.2 Phases=1 Bus1=6068.2 kW=0 kvar=0 kv=0.240 vminpu=0.9 vmaxpu=1.1
New Load.6069.1 Phases=1 Bus1=6069.1 kW=0 kvar=0 kv=0.240 vminpu=0.9 vmaxpu=1.1
New Load.6070.2 Phases=1 Bus1=6070.2 kW=0 kvar=0 kv=0.240 vminpu=0.9 vmaxpu=1.1
New Load.6071.3 Phases=1 Bus1=6071.3 kW=0 kvar=0 kv=0.240 vminpu=0.9 vmaxpu=1.1
New Load.6072.3 Phases=1 Bus1=6072.3 kW=0 kvar=0 kv=0.240 vminpu=0.9 vmaxpu=1.1
New Load.6073.3 Phases=1 Bus1=6073.3 kW=0 kvar=0 kv=0.240 vminpu=0.9 vmaxpu=1.1
New Load.6074.3 Phases=1 Bus1=6074.3 kW=0 kvar=0 kv=0.240 vminpu=0.9 vmaxpu=1.1
New Load.6075.1 Phases=1 Bus1=6075.1 kW=0 kvar=0 kv=0.240 vminpu=0.9 vmaxpu=1.1
New Load.6076.1 Phases=1 Bus1=6076.1 kW=0 kvar=0 kv=0.240 vminpu=0.9 vmaxpu=1.1
New Load.6077.1 Phases=1 Bus1=6077.1 kW=0 kvar=0 kv=0.240 vminpu=0.9 vmaxpu=1.1
New Load.6078.2 Phases=1 Bus1=6078.2 kW=0 kvar=0 kv=0.240 vminpu=0.9 vmaxpu=1.1
New Load.6079.3 Phases=1 Bus1=6079.3 kW=0 kvar=0 kv=0.240 vminpu=0.9 vmaxpu=1.1
New Load.6080.1 Phases=1 Bus1=6080.1 kW=0 kvar=0 kv=0.240 vminpu=0.9 vmaxpu=1.1
New Load.6081.2 Phases=1 Bus1=6081.2 kW=0 kvar=0 kv=0.240 vminpu=0.9 vmaxpu=1.1
New Load.6082.3 Phases=1 Bus1=6082.3 kW=0 kvar=0 kv=0.240 vminpu=0.9 vmaxpu=1.1
New Load.6083.3 Phases=1 Bus1=6083.3 kW=0 kvar=0 kv=0.240 vminpu=0.9 vmaxpu=1.1
New Load.6084.1 Phases=1 Bus1=6084.1 kW=0 kvar=0 kv=0.240 vminpu=0.9 vmaxpu=1.1
New Load.6085.1 Phases=1 Bus1=6085.1 kW=0 kvar=0 kv=0.240 vminpu=0.9 vmaxpu=1.1
New Load.6086.1 Phases=1 Bus1=6086.1 kW=0 kvar=0 kv=0.240 vminpu=0.9 vmaxpu=1.1
New Load.6087.3 Phases=1 Bus1=6087.3 kW=0 kvar=0 kv=0.240 vminpu=0.9 vmaxpu=1.1
New Load.6088.3 Phases=1 Bus1=6088.3 kW=0 kvar=0 kv=0.240 vminpu=0.9 vmaxpu=1.1
New Load.6089.1 Phases=1 Bus1=6089.1 kW=0 kvar=0 kv=0.240 vminpu=0.9 vmaxpu=1.1
New Load.6090.2 Phases=1 Bus1=6090.2 kW=0 kvar=0 kv=0.240 vminpu=0.9 vmaxpu=1.1
New Load.6091.2 Phases=1 Bus1=6091.2 kW=0 kvar=0 kv=0.240 vminpu=0.9 vmaxpu=1.1
New Load.6092.2 Phases=1 Bus1=6092.2 kW=0 kvar=0 kv=0.240 vminpu=0.9 vmaxpu=1.1
New Load.6093.2 Phases=1 Bus1=6093.2 kW=0 kvar=0 kv=0.240 vminpu=0.9 vmaxpu=1.1
New Load.6094.3 Phases=1 Bus1=6094.3 kW=0 kvar=0 kv=0.240 vminpu=0.9 vmaxpu=1.1
New Load.6095.2 Phases=1 Bus1=6095.2 kW=0 kvar=0 kv=0.240 vminpu=0.9 vmaxpu=1.1
New Load.6096.2 Phases=1 Bus1=6096.2 kW=0 kvar=0 kv=0.240 vminpu=0.9 vmaxpu=1.1
New Load.6097.3 Phases=1 Bus1=6097.3 kW=0 kvar=0 kv=0.240 vminpu=0.9 vmaxpu=1.1
New Load.6098.3 Phases=1 Bus1=6098.3 kW=0 kvar=0 kv=0.240 vminpu=0.9 vmaxpu=1.1
New Load.6099.2 Phases=1 Bus1=6099.2 kW=0 kvar=0 kv=0.240 vminpu=0.9 vmaxpu=1.1
New Load.6100.2 Phases=1 Bus1=6100.2 kW=0 kvar=0 kv=0.240 vminpu=0.9 vmaxpu=1.1
New Load.6101.1 Phases=1 Bus1=6101.1 kW=0 kvar=0 kv=0.240 vminpu=0.9 vmaxpu=1.1
New Load.6102.3 Phases=1 Bus1=6102.3 kW=0 kvar=0 kv=0.240 vminpu=0.9 vmaxpu=1.1
New Load.6103.1 Phases=1 Bus1=6103.1 kW=0 kvar=0 kv=0.240 vminpu=0.9 vmaxpu=1.1
New Load.6104.1 Phases=1 Bus1=6104.1 kW=0 kvar=0 kv=0.240 vminpu=0.9 vmaxpu=1.1
New Load.6105.2 Phases=1 Bus1=6105.2 kW=0 kvar=0 kv=0.240 vminpu=0.9 vmaxpu=1.1
New Load.6106.1 Phases=1 Bus1=6106.1 kW=0 kvar=0 kv=0.240 vminpu=0.9 vmaxpu=1.1
New Load.6107.1 Phases=1 Bus1=6107.1 kW=0 kvar=0 kv=0.240 vminpu=0.9 vmaxpu=1.1
New Load.6108.2 Phases=1 Bus1=6108.2 kW=0 kvar=0 kv=0.240 vminpu=0.9 vmaxpu=1.1
New Load.6109.1 Phases=1 Bus1=6109.1 kW=0 kvar=0 kv=0.240 vminpu=0.9 vmaxpu=1.1
New Load.6110.1 Phases=1 Bus1=6110.1 kW=0 kvar=0 kv=0.240 vminpu=0.9 vmaxpu=1.1
New Load.7056.1 Phases=1 Bus1=7056.1 kW=0 kvar=0 kv=0.240 vminpu=0.9 vmaxpu=1.1
New Load.7057.2 Phases=1 Bus1=7057.2 kW=0 kvar=0 kv=0.240 vminpu=0.9 vmaxpu=1.1
New Load.7058.1 Phases=1 Bus1=7058.1 kW=0 kvar=0 kv=0.240 vminpu=0.9 vmaxpu=1.1
New Load.7059.1 Phases=1 Bus1=7059.1 kW=0 kvar=0 kv=0.240 vminpu=0.9 vmaxpu=1.1
New Load.7060.1 Phases=1 Bus1=7060.1 kW=0 kvar=0 kv=0.240 vminpu=0.9 vmaxpu=1.1
New Load.7061.2 Phases=1 Bus1=7061.2 kW=0 kvar=0 kv=0.240 vminpu=0.9 vmaxpu=1.1
New Load.7062.2 Phases=1 Bus1=7062.2 kW=0 kvar=0 kv=0.240 vminpu=0.9 vmaxpu=1.1
New Load.7063.3 Phases=1 Bus1=7063.3 kW=0 kvar=0 kv=0.240 vminpu=0.9 vmaxpu=1.1
New Load.7064.1 Phases=1 Bus1=7064.1 kW=0 kvar=0 kv=0.240 vminpu=0.9 vmaxpu=1.1
New Load.7065.2 Phases=1 Bus1=7065.2 kW=0 kvar=0 kv=0.240 vminpu=0.9 vmaxpu=1.1
New Load.7066.2 Phases=1 Bus1=7066.2 kW=0 kvar=0 kv=0.240 vminpu=0.9 vmaxpu=1.1
New Load.7067.3 Phases=1 Bus1=7067.3 kW=0 kvar=0 kv=0.240 vminpu=0.9 vmaxpu=1.1
New Load.7068.2 Phases=1 Bus1=7068.2 kW=0 kvar=0 kv=0.240 vminpu=0.9 vmaxpu=1.1
New Load.7069.1 Phases=1 Bus1=7069.1 kW=0 kvar=0 kv=0.240 vminpu=0.9 vmaxpu=1.1
New Load.7070.2 Phases=1 Bus1=7070.2 kW=0 kvar=0 kv=0.240 vminpu=0.9 vmaxpu=1.1
New Load.7071.3 Phases=1 Bus1=7071.3 kW=0 kvar=0 kv=0.240 vminpu=0.9 vmaxpu=1.1
New Load.7072.3 Phases=1 Bus1=7072.3 kW=0 kvar=0 kv=0.240 vminpu=0.9 vmaxpu=1.1
New Load.7073.3 Phases=1 Bus1=7073.3 kW=0 kvar=0 kv=0.240 vminpu=0.9 vmaxpu=1.1
New Load.7074.3 Phases=1 Bus1=7074.3 kW=0 kvar=0 kv=0.240 vminpu=0.9 vmaxpu=1.1
New Load.7075.1 Phases=1 Bus1=7075.1 kW=0 kvar=0 kv=0.240 vminpu=0.9 vmaxpu=1.1
New Load.7076.1 Phases=1 Bus1=7076.1 kW=0 kvar=0 kv=0.240 vminpu=0.9 vmaxpu=1.1
New Load.7077.1 Phases=1 Bus1=7077.1 kW=0 kvar=0 kv=0.240 vminpu=0.9 vmaxpu=1.1
New Load.7078.2 Phases=1 Bus1=7078.2 kW=0 kvar=0 kv=0.240 vminpu=0.9 vmaxpu=1.1
New Load.7079.3 Phases=1 Bus1=7079.3 kW=0 kvar=0 kv=0.240 vminpu=0.9 vmaxpu=1.1
New Load.7080.1 Phases=1 Bus1=7080.1 kW=0 kvar=0 kv=0.240 vminpu=0.9 vmaxpu=1.1
New Load.7081.2 Phases=1 Bus1=7081.2 kW=0 kvar=0 kv=0.240 vminpu=0.9 vmaxpu=1.1
New Load.7082.3 Phases=1 Bus1=7082.3 kW=0 kvar=0 kv=0.240 vminpu=0.9 vmaxpu=1.1
New Load.7083.3 Phases=1 Bus1=7083.3 kW=0 kvar=0 kv=0.240 vminpu=0.9 vmaxpu=1.1
New Load.7084.1 Phases=1 Bus1=7084.1 kW=0 kvar=0 kv=0.240 vminpu=0.9 vmaxpu=1.1
New Load.7085.1 Phases=1 Bus1=7085.1 kW=0 kvar=0 kv=0.240 vminpu=0.9 vmaxpu=1.1
New Load.7086.1 Phases=1 Bus1=7086.1 kW=0 kvar=0 kv=0.240 vminpu=0.9 vmaxpu=1.1
New Load.7087.3 Phases=1 Bus1=7087.3 kW=0 kvar=0 kv=0.240 vminpu=0.9 vmaxpu=1.1
New Load.7088.3 Phases=1 Bus1=7088.3 kW=0 kvar=0 kv=0.240 vminpu=0.9 vmaxpu=1.1
New Load.7089.1 Phases=1 Bus1=7089.1 kW=0 kvar=0 kv=0.240 vminpu=0.9 vmaxpu=1.1
New Load.7090.2 Phases=1 Bus1=7090.2 kW=0 kvar=0 kv=0.240 vminpu=0.9 vmaxpu=1.1
New Load.7091.2 Phases=1 Bus1=7091.2 kW=0 kvar=0 kv=0.240 vminpu=0.9 vmaxpu=1.1
New Load.7092.2 Phases=1 Bus1=7092.2 kW=0 kvar=0 kv=0.240 vminpu=0.9 vmaxpu=1.1
New Load.7093.2 Phases=1 Bus1=7093.2 kW=0 kvar=0 kv=0.240 vminpu=0.9 vmaxpu=1.1
New Load.7094.3 Phases=1 Bus1=7094.3 kW=0 kvar=0 kv=0.240 vminpu=0.9 vmaxpu=1.1
New Load.7095.2 Phases=1 Bus1=7095.2 kW=0 kvar=0 kv=0.240 vminpu=0.9 vmaxpu=1.1
New Load.7096.2 Phases=1 Bus1=7096.2 kW=0 kvar=0 kv=0.240 vminpu=0.9 vmaxpu=1.1
New Load.7097.3 Phases=1 Bus1=7097.3 kW=0 kvar=0 kv=0.240 vminpu=0.9 vmaxpu=1.1
New Load.7098.3 Phases=1 Bus1=7098.3 kW=0 kvar=0 kv=0.240 vminpu=0.9 vmaxpu=1.1
New Load.7099.2 Phases=1 Bus1=7099.2 kW=0 kvar=0 kv=0.240 vminpu=0.9 vmaxpu=1.1
New Load.7100.2 Phases=1 Bus1=7100.2 kW=0 kvar=0 kv=0.240 vminpu=0.9 vmaxpu=1.1
New Load.7101.1 Phases=1 Bus1=7101.1 kW=0 kvar=0 kv=0.240 vminpu=0.9 vmaxpu=1.1
New Load.7102.3 Phases=1 Bus1=7102.3 kW=0 kvar=0 kv=0.240 vminpu=0.9 vmaxpu=1.1
New Load.7103.1 Phases=1 Bus1=7103.1 kW=0 kvar=0 kv=0.240 vminpu=0.9 vmaxpu=1.1
New Load.7104.1 Phases=1 Bus1=7104.1 kW=0 kvar=0 kv=0.240 vminpu=0.9 vmaxpu=1.1
New Load.7105.2 Phases=1 Bus1=7105.2 kW=0 kvar=0 kv=0.240 vminpu=0.9 vmaxpu=1.1
New Load.7106.1 Phases=1 Bus1=7106.1 kW=0 kvar=0 kv=0.240 vminpu=0.9 vmaxpu=1.1
New Load.7107.1 Phases=1 Bus1=7107.1 kW=0 kvar=0 kv=0.240 vminpu=0.9 vmaxpu=1.1
New Load.7108.2 Phases=1 Bus1=7108.2 kW=0 kvar=0 kv=0.240 vminpu=0.9 vmaxpu=1.1
New Load.7109.1 Phases=1 Bus1=7109.1 kW=0 kvar=0 kv=0.240 vminpu=0.9 vmaxpu=1.1
New Load.7110.1 Phases=1 Bus1=7110.1 kW=0 kvar=0 kv=0.240 vminpu=0.9 vmaxpu=1.1
New Load.8056.1 Phases=1 Bus1=8056.1 kW=0 kvar=0 kv=0.240 vminpu=0.9 vmaxpu=1.1
New Load.8057.2 Phases=1 Bus1=8057.2 kW=0 kvar=0 kv=0.240 vminpu=0.9 vmaxpu=1.1
New Load.8058.1 Phases=1 Bus1=8058.1 kW=0 kvar=0 kv=0.240 vminpu=0.9 vmaxpu=1.1
New Load.8059.1 Phases=1 Bus1=8059.1 kW=0 kvar=0 kv=0.240 vminpu=0.9 vmaxpu=1.1
New Load.8060.1 Phases=1 Bus1=8060.1 kW=0 kvar=0 kv=0.240 vminpu=0.9 vmaxpu=1.1
New Load.8061.2 Phases=1 Bus1=8061.2 kW=0 kvar=0 kv=0.240 vminpu=0.9 vmaxpu=1.1
New Load.8062.2 Phases=1 Bus1=8062.2 kW=0 kvar=0 kv=0.240 vminpu=0.9 vmaxpu=1.1
New Load.8063.3 Phases=1 Bus1=8063.3 kW=0 kvar=0 kv=0.240 vminpu=0.9 vmaxpu=1.1
New Load.8064.1 Phases=1 Bus1=8064.1 kW=0 kvar=0 kv=0.240 vminpu=0.9 vmaxpu=1.1
New Load.8065.2 Phases=1 Bus1=8065.2 kW=0 kvar=0 kv=0.240 vminpu=0.9 vmaxpu=1.1
New Load.8066.2 Phases=1 Bus1=8066.2 kW=0 kvar=0 kv=0.240 vminpu=0.9 vmaxpu=1.1
New Load.8067.3 Phases=1 Bus1=8067.3 kW=0 kvar=0 kv=0.240 vminpu=0.9 vmaxpu=1.1
New Load.8068.2 Phases=1 Bus1=8068.2 kW=0 kvar=0 kv=0.240 vminpu=0.9 vmaxpu=1.1
New Load.8069.1 Phases=1 Bus1=8069.1 kW=0 kvar=0 kv=0.240 vminpu=0.9 vmaxpu=1.1
New Load.8070.2 Phases=1 Bus1=8070.2 kW=0 kvar=0 kv=0.240 vminpu=0.9 vmaxpu=1.1
New Load.8071.3 Phases=1 Bus1=8071.3 kW=0 kvar=0 kv=0.240 vminpu=0.9 vmaxpu=1.1
New Load.8072.3 Phases=1 Bus1=8072.3 kW=0 kvar=0 kv=0.240 vminpu=0.9 vmaxpu=1.1
New Load.8073.3 Phases=1 Bus1=8073.3 kW=0 kvar=0 kv=0.240 vminpu=0.9 vmaxpu=1.1
New Load.8074.3 Phases=1 Bus1=8074.3 kW=0 kvar=0 kv=0.240 vminpu=0.9 vmaxpu=1.1
New Load.8075.1 Phases=1 Bus1=8075.1 kW=0 kvar=0 kv=0.240 vminpu=0.9 vmaxpu=1.1
New Load.8076.1 Phases=1 Bus1=8076.1 kW=0 kvar=0 kv=0.240 vminpu=0.9 vmaxpu=1.1
New Load.8077.1 Phases=1 Bus1=8077.1 kW=0 kvar=0 kv=0.240 vminpu=0.9 vmaxpu=1.1
New Load.8078.2 Phases=1 Bus1=8078.2 kW=0 kvar=0 kv=0.240 vminpu=0.9 vmaxpu=1.1
New Load.8079.3 Phases=1 Bus1=8079.3 kW=0 kvar=0 kv=0.240 vminpu=0.9 vmaxpu=1.1
New Load.8080.1 Phases=1 Bus1=8080.1 kW=0 kvar=0 kv=0.240 vminpu=0.9 vmaxpu=1.1
New Load.8081.2 Phases=1 Bus1=8081.2 kW=0 kvar=0 kv=0.240 vminpu=0.9 vmaxpu=1.1
New Load.8082.3 Phases=1 Bus1=8082.3 kW=0 kvar=0 kv=0.240 vminpu=0.9 vmaxpu=1.1
New Load.8083.3 Phases=1 Bus1=8083.3 kW=0 kvar=0 kv=0.240 vminpu=0.9 vmaxpu=1.1
New Load.8084.1 Phases=1 Bus1=8084.1 kW=0 kvar=0 kv=0.240 vminpu=0.9 vmaxpu=1.1
New Load.8085.1 Phases=1 Bus1=8085.1 kW=0 kvar=0 kv=0.240 vminpu=0.9 vmaxpu=1.1
New Load.8086.1 Phases=1 Bus1=8086.1 kW=0 kvar=0 kv=0.240 vminpu=0.9 vmaxpu=1.1
New Load.8087.3 Phases=1 Bus1=8087.3 kW=0 kvar=0 kv=0.240 vminpu=0.9 vmaxpu=1.1
New Load.8088.3 Phases=1 Bus1=8088.3 kW=0 kvar=0 kv=0.240 vminpu=0.9 vmaxpu=1.1
New Load.8089.1 Phases=1 Bus1=8089.1 kW=0 kvar=0 kv=0.240 vminpu=0.9 vmaxpu=1.1
New Load.8090.2 Phases=1 Bus1=8090.2 kW=0 kvar=0 kv=0.240 vminpu=0.9 vmaxpu=1.1
New Load.8091.2 Phases=1 Bus1=8091.2 kW=0 kvar=0 kv=0.240 vminpu=0.9 vmaxpu=1.1
New Load.8092.2 Phases=1 Bus1=8092.2 kW=0 kvar=0 kv=0.240 vminpu=0.9 vmaxpu=1.1
New Load.8093.2 Phases=1 Bus1=8093.2 kW=0 kvar=0 kv=0.240 vminpu=0.9 vmaxpu=1.1
New Load.8094.3 Phases=1 Bus1=8094.3 kW=0 kvar=0 kv=0.240 vminpu=0.9 vmaxpu=1.1
New Load.8095.2 Phases=1 Bus1=8095.2 kW=0 kvar=0 kv=0.240 vminpu=0.9 vmaxpu=1.1
New Load.8096.2 Phases=1 Bus1=8096.2 kW=0 kvar=0 kv=0.240 vminpu=0.9 vmaxpu=1.1
New Load.8097.3 Phases=1 Bus1=8097.3 kW=0 kvar=0 kv=0.240 vminpu=0.9 vmaxpu=1.1
New Load.8098.3 Phases=1 Bus1=8098.3 kW=0 kvar=0 kv=0.240 vminpu=0.9 vmaxpu=1.1
New Load.8099.2 Phases=1 Bus1=8099.2 kW=0 kvar=0 kv=0.240 vminpu=0.9 vmaxpu=1.1
New Load.8100.2 Phases=1 Bus1=8100.2 kW=0 kvar=0 kv=0.240 vminpu=0.9 vmaxpu=1.1